#------------------------------------------------------------------------------
#$Date: 2017-11-07 11:34:42 +0200 (Tue, 07 Nov 2017) $
#$Revision: 202892 $
#$URL: file:///home/coder/svn-repositories/cod/cif/1/54/78/1547888.cif $
#------------------------------------------------------------------------------
#
# This file is available in the Crystallography Open Database (COD),
# http://www.crystallography.net/
#
# All data on this site have been placed in the public domain by the
# contributors.
#
data_1547888
loop_
_publ_author_name
'Xuemiao Yin'
'Yaxing Wang'
'Xiaojing Bai'
'Yumin Wang'
'Lanhua Chen'
'Chengliang Xiao'
'Juan Diwu'
'Shiyu Du'
'Zhifang Chai'
'Thomas E. Albrecht-Schmitt'
'Shuao Wang'
_publ_section_title
;
 Rare earth separations by selective borate crystallization
;
_journal_name_full               'Nature Communications'
_journal_page_first              14438
_journal_paper_doi               10.1038/ncomms14438
_journal_volume                  8
_journal_year                    2017
_chemical_formula_moiety         'B4 Cl La O8'
_chemical_formula_sum            'B4 Cl La O8'
_chemical_formula_weight         345.60
_chemical_name_common            'Lanthanum  borate chloride'
_space_group_crystal_system      monoclinic
_space_group_IT_number           9
_space_group_name_Hall           'C -2yc'
_space_group_name_H-M_alt        'C 1 c 1'
_symmetry_space_group_name_Hall  'C -2yc'
_symmetry_space_group_name_H-M   'C 1 c 1'
_atom_sites_solution_hydrogens   .
_cell_angle_alpha                90
_cell_angle_beta                 105.271(7)
_cell_angle_gamma                90
_cell_formula_units_Z            4
_cell_length_a                   6.5268(17)
_cell_length_b                   11.251(3)
_cell_length_c                   9.814(3)
_cell_measurement_reflns_used    1190
_cell_measurement_temperature    298(2)
_cell_measurement_theta_max      27.573
_cell_measurement_theta_min      3.708
_cell_volume                     695.2(3)
_computing_cell_refinement       'Bruker SMART'
_computing_data_collection       'Bruker SMART'
_computing_data_reduction        'Bruker SAINT'
_computing_molecular_graphics    'SHELXL-2014/7 (Sheldrick, 2014)'
_computing_publication_material  'SHELXL-2014/7 (Sheldrick, 2014)'
_computing_structure_refinement  'SHELXL-2014/7 (Sheldrick, 2014)'
_computing_structure_solution    'SHELXL-2014/7 (Sheldrick, 2014)'
_diffrn_ambient_temperature      298(2)
_diffrn_measured_fraction_theta_full 0.983
_diffrn_measured_fraction_theta_max 0.987
_diffrn_measurement_device_type  'Bruker Aperx II'
_diffrn_radiation_type           MoK\a
_diffrn_radiation_wavelength     0.71073
_diffrn_reflns_av_R_equivalents  0.0185
_diffrn_reflns_av_unetI/netI     0.0251
_diffrn_reflns_Laue_measured_fraction_full 0.983
_diffrn_reflns_Laue_measured_fraction_max 0.987
_diffrn_reflns_limit_h_max       8
_diffrn_reflns_limit_h_min       -6
_diffrn_reflns_limit_k_max       14
_diffrn_reflns_limit_k_min       -14
_diffrn_reflns_limit_l_max       9
_diffrn_reflns_limit_l_min       -12
_diffrn_reflns_number            3658
_diffrn_reflns_point_group_measured_fraction_full 0.983
_diffrn_reflns_point_group_measured_fraction_max 0.987
_diffrn_reflns_theta_full        25.242
_diffrn_reflns_theta_max         27.573
_diffrn_reflns_theta_min         3.708
_diffrn_source                   'fine-focus sealed tube'
_exptl_absorpt_coefficient_mu    6.538
_exptl_absorpt_correction_T_max  0.955
_exptl_absorpt_correction_T_min  0.841
_exptl_absorpt_correction_type   multi-scan
_exptl_absorpt_process_details   'SADABS, Bruker'
_exptl_crystal_colour            colorless
_exptl_crystal_density_diffrn    3.302
_exptl_crystal_description       block
_exptl_crystal_F_000             632
_exptl_crystal_size_max          0.067
_exptl_crystal_size_mid          0.022
_exptl_crystal_size_min          0.007
_refine_diff_density_max         0.461
_refine_diff_density_min         -0.437
_refine_diff_density_rms         0.088
_refine_ls_abs_structure_details
;
 Refined as an inversion twin.
;
_refine_ls_abs_structure_Flack   0.990(18)
_refine_ls_extinction_coef       0.0044(5)
_refine_ls_extinction_expression Fc^*^=kFc[1+0.001xFc^2^\l^3^/sin(2\q)]^-1/4^
_refine_ls_extinction_method     SHELXL
_refine_ls_goodness_of_fit_ref   1.037
_refine_ls_hydrogen_treatment    undef
_refine_ls_matrix_type           full
_refine_ls_number_parameters     129
_refine_ls_number_reflns         1190
_refine_ls_number_restraints     2
_refine_ls_restrained_S_all      1.036
_refine_ls_R_factor_all          0.0111
_refine_ls_R_factor_gt           0.0111
_refine_ls_shift/su_max          0.001
_refine_ls_shift/su_mean         0.000
_refine_ls_structure_factor_coef Fsqd
_refine_ls_weighting_details
'w=1/[\s^2^(Fo^2^)+(0.0138P)^2^] where P=(Fo^2^+2Fc^2^)/3'
_refine_ls_weighting_scheme      calc
_refine_ls_wR_factor_gt          0.0286
_refine_ls_wR_factor_ref         0.0286
_reflns_Friedel_coverage         0.993
_reflns_Friedel_fraction_full    0.984
_reflns_Friedel_fraction_max     0.988
_reflns_number_gt                1185
_reflns_number_total             1190
_reflns_threshold_expression     'I > 2\s(I)'
_cod_data_source_file            ncomms14438-1.cif
_cod_data_source_block           LaBOCl-1
_cod_depositor_comments
;
The following automatic conversions were performed:

'_exptl_absorpt_correction_type' value 'Multi-scan' changed to
'multi-scan' according to the built-in table from CIF Core dictionary
named 'cif_core.dic' version 2.4.1 from 2010-06-29.

Automatic conversion script
Id: cif_fix_values 5376 2017-05-30 11:51:03Z andrius 
;
_cod_original_cell_volume        695.3(3)
_cod_database_code               1547888
_shelx_space_group_comment
;
The symmetry employed for this shelxl refinement is uniquely defined
by the following loop, which should always be used as a source of
symmetry information in preference to the above space-group names.
They are only intended as comments.
;
_shelxl_version_number           2014-3
_shelx_res_file
;
TITL save in Cc
CELL 0.71073   6.52680  11.25110   9.81437  90.0000 105.2713  90.0000
ZERR    4.00   0.00170   0.00280   0.00319   0.0000   0.0071   0.0000
LATT -7
SYMM X, -Y, 0.5+Z
SFAC B O CL LA
UNIT 16 32 4 4
TEMP 25

L.S. 200
BOND
acta
twin
omit -2 0 0
omit -1 5 0
FMAP 2
PLAN 20

WGHT    0.013800
EXTI    0.004424
BASF   0.98968
FVAR       0.14794
LA1   4    0.645584    0.793574    0.555596    11.00000    0.00613    0.00399 =
         0.00610   -0.00019    0.00172   -0.00008
B1    1    0.333420    0.554307    0.636147    11.00000    0.00822    0.00701 =
         0.00937    0.00295    0.00336    0.00078
B2    1    0.992983    0.594046    0.685312    11.00000    0.00585    0.00406 =
         0.00913   -0.00224    0.00227   -0.00092
B3    1    1.245880    0.755741    0.708238    11.00000    0.00873    0.00394 =
         0.00938   -0.00010    0.00386   -0.00101
B4    1    0.675678    0.466235    0.616747    11.00000    0.00770    0.00557 =
         0.00784   -0.00083    0.00256   -0.00048
O1    2    0.958198    0.962568    0.604682    11.00000    0.00474    0.00494 =
         0.01564   -0.00001    0.00340    0.00120
O2    2    0.799905    0.724142    0.360997    11.00000    0.01026    0.01393 =
         0.00753    0.00131    0.00190    0.00256
O3    2    1.030618    0.717060    0.656307    11.00000    0.00519    0.00260 =
         0.00866    0.00031    0.00173   -0.00035
O4    2    0.629879    1.015518    0.624517    11.00000    0.00453    0.00347 =
         0.01371   -0.00168    0.00476   -0.00169
O5    2    0.767278    0.573431    0.611912    11.00000    0.00395    0.00331 =
         0.01376    0.00166    0.00166    0.00001
O6    2    0.533755    0.927497    0.337953    11.00000    0.01373    0.01022 =
         0.00696    0.00068    0.00133   -0.00112
O7    2    0.400535    0.664864    0.677450    11.00000    0.00488    0.00437 =
         0.00996    0.00040    0.00119    0.00076
O8    2    0.791951    0.363776    0.634332    11.00000    0.00559    0.00617 =
         0.01123    0.00091    0.00368   -0.00117
CL1   3    0.784598    0.825327    0.862276    11.00000    0.01247    0.01549 =
         0.00842    0.00031    0.00122    0.00467
HKLF 4

REM  save in Cc
REM R1 =  0.0111 for    1185 Fo > 4sig(Fo)  and  0.0111 for all    1190 data
REM    129 parameters refined using      2 restraints

END

WGHT      0.0109      0.1302

REM Highest difference peak  0.461,  deepest hole -0.437,  1-sigma level  0.088
Q1    1   0.9356  0.7102  0.3859  11.00000  0.05    0.46
Q2    1   0.6601  0.7951  0.6552  11.00000  0.05    0.41
Q3    1   0.6384  0.7954  0.4594  11.00000  0.05    0.41
Q4    1   0.3609  0.7087  0.7251  11.00000  0.05    0.41
Q5    1   0.5900  0.9977  0.3585  11.00000  0.05    0.38
Q6    1   0.7017  1.0119  0.7428  11.00000  0.05    0.34
Q7    1   0.5565  0.9223  0.2757  11.00000  0.05    0.29
Q8    1   1.0180  0.6890  0.6914  11.00000  0.05    0.28
Q9    1   1.0653  0.8044  0.5500  11.00000  0.05    0.28
Q10   1   0.7788  0.7931  0.5277  11.00000  0.05    0.28
Q11   1   0.7149  0.5375  0.6377  11.00000  0.05    0.27
Q12   1   0.8174  0.9598  0.5904  11.00000  0.05    0.27
Q13   1   0.7910  0.8259  0.9488  11.00000  0.05    0.27
Q14   1   0.9997  0.7085  0.6208  11.00000  0.05    0.27
Q15   1   0.6008  1.0251  0.5151  11.00000  0.05    0.26
Q16   1   0.7361  0.5754  0.7119  11.00000  0.05    0.25
Q17   1   0.6405  0.8289  0.8757  11.00000  0.05    0.25
Q18   1   0.9799  0.9457  0.5354  11.00000  0.05    0.24
Q19   1   1.0508  0.9640  0.6367  11.00000  0.05    0.24
Q20   1   0.5184  0.7934  0.5907  11.00000  0.05    0.24
;
_shelx_res_checksum              24155
_shelx_hkl_file
;
   2   0  -2  559.86   19.42
  -4   0   4  348.51   11.49
   4   0  -4  301.57   11.54
   4   0  -4  304.07   11.45
  -4   0   4  335.69   11.43
  -6   0   6  217.93    8.12
   6   0  -6  230.65    8.35
  -6   0   6  208.86    8.34
   6   0  -6  237.05    8.57
  -3   1   3  461.79   16.34
  -3   1   3  463.47   16.23
  -3   1   3  466.39   16.23
   3   1  -3  459.59   16.36
   3   1  -3  462.07   16.34
  -3  -1   3  465.72   16.30
   3  -1  -3  477.35   16.24
   3  -1  -3  465.42   16.25
  -3  -1   3  479.69   16.34
   3  -1  -3  464.11   16.36
   5   1  -5  360.34   13.60
  -5   1   5  398.57   13.43
  -5   1   5  396.07   13.33
   5   1  -5  355.96   13.49
   5  -1  -5  373.86   13.42
  -5  -1   5  387.21   13.53
   5  -1  -5  370.08   13.60
   7   1  -7  204.20    8.27
   7   1  -7  212.79    8.13
   7  -1  -7  211.93    8.31
   7  -1  -7  214.62    7.99
  -2   2   2  304.35   11.19
   2   2  -2  326.74   11.28
   2   2  -2  329.64   11.32
  -2   2   2  308.96   11.24
   2   2  -2  336.20   11.19
   2  -2  -2  336.13   11.13
  -2  -2   2  281.45   11.37
   2  -2  -2  330.11   11.27
   2  -2  -2  339.14   11.25
  -4   2   4  272.77    9.43
  -4   2   4  265.51    9.23
   4   2  -4  258.82    9.46
  -4   2   4  266.73    9.24
   4   2  -4  251.04    9.44
   4   2  -4  257.71    9.30
  -4  -2   4  269.72    9.44
   4  -2  -4  253.47    9.42
   4  -2  -4  248.72    9.22
  -4  -2   4  267.08    9.39
   4  -2  -4  252.18    9.34
   6   2  -6  358.17   13.72
  -6   2   6  364.90   12.87
   6   2  -6  359.35   13.38
  -6  -2   6  369.31   13.15
   6  -2  -6  368.74   13.39
   6  -2  -6  369.71   13.06
   1   3  -1  183.82    6.43
  -1   3   1  183.99    6.43
   1   3  -1  190.07    6.54
   1  -3  -1  178.81    6.67
  -1  -3   1  178.54    6.42
   1  -3  -1  183.68    6.51
   1  -3  -1  185.08    6.36
   3   3  -3  331.31   11.39
  -3   3   3  309.10   11.37
  -3   3   3  323.82   11.48
   3   3  -3  326.02   11.53
   3   3  -3  336.00   11.61
   3  -3  -3  323.69   11.31
   3  -3  -3  315.29   11.49
  -3  -3   3  331.61   11.57
   5   3  -5  145.04    5.58
   5   3  -5  147.42    5.36
  -5   3   5  143.90    5.21
   5   3  -5  138.25    5.56
   5  -3  -5  145.49    5.56
   5  -3  -5  139.51    5.23
  -5  -3   5  135.52    5.46
   7   3  -7  107.51    4.75
   7   3  -7  105.30    4.80
   7  -3  -7  113.28    4.82
   0   4   0  245.07    8.67
   0  -4   0  247.21    8.67
   0  -4   0  248.25    8.79
   0  -4   0  248.14    8.72
  -2   4   2  183.87    6.91
  -2   4   2  183.96    6.94
   2   4  -2  199.24    6.88
   2   4  -2  208.16    7.09
   2  -4  -2  205.35    7.02
   2  -4  -2  206.59    6.96
  -2  -4   2  181.16    6.84
  -2  -4   2  186.33    7.04
   4   4  -4  141.51    5.02
  -4   4   4  128.13    4.99
   4   4  -4  142.86    5.30
  -4   4   4  131.92    5.13
   4   4  -4  140.59    5.22
   4  -4  -4  134.91    5.11
   4  -4  -4  136.36    5.17
  -4  -4   4  127.10    5.22
   6   4  -6   43.75    2.33
  -6   4   6   37.04    1.77
   6   4  -6   40.65    2.01
   6   4  -6   44.59    2.38
   6  -4  -6   45.35    1.88
   6  -4  -6   44.62    2.33
  -1   5   1  286.97    9.43
   1   5  -1  245.90    9.55
   1   5  -1  265.04    9.44
   1  -5  -1  269.50    9.60
   1  -5  -1  266.79    9.37
  -1  -5   1  277.76    9.57
  -1  -5   1  270.29    9.47
   3   5  -3   85.04    3.54
  -3   5   3   93.83    3.38
  -3   5   3   94.29    3.39
   3   5  -3   79.75    3.39
   3   5  -3   85.29    3.28
   3  -5  -3   84.66    3.44
  -3  -5   3   89.48    3.53
   3  -5  -3   84.82    3.39
   5   5  -5    0.61    0.34
   5   5  -5    0.66    0.47
   5   5  -5    0.10    0.45
   5  -5  -5    0.64    0.40
   5  -5  -5    0.87    0.43
   7   5  -7    5.07    1.08
   7   5  -7    6.37    1.14
   7  -5  -7    7.33    1.37
   0   6   0   14.83    0.79
   0   6   0   14.53    0.72
   0  -6   0   14.82    0.82
   0  -6   0   14.94    0.90
   0  -6   0   13.38    0.85
   2   6  -2   27.97    1.23
  -2   6   2   29.08    1.25
   2   6  -2   26.40    1.42
   2  -6  -2   29.46    1.29
   2  -6  -2   28.63    1.41
  -2  -6   2   25.23    1.39
  -2  -6   2   25.61    1.20
   2  -6  -2   30.23    1.08
   4   6  -4    2.31    0.42
   4   6  -4    1.72    0.49
  -4   6   4    2.57    0.47
   4   6  -4    1.93    0.47
   4  -6  -4    2.53    0.48
   4  -6  -4    1.43    0.87
   6   6  -6   20.92    1.61
   6   6  -6   20.88    1.72
   6  -6  -6   20.42    1.38
   6  -6  -6   19.30    1.57
   1   7  -1   81.42    3.16
  -1   7   1   73.40    2.92
   1  -7  -1   82.03    3.17
  -1  -7   1   69.70    3.02
   1  -7  -1   83.23    2.95
   1  -7  -1   82.47    3.24
  -1  -7   1   74.26    3.11
   3   7  -3   18.01    1.20
   3   7  -3   17.81    0.90
  -3   7   3   15.03    0.93
   3   7  -3   16.84    1.02
   3  -7  -3   17.07    1.00
  -3  -7   3   15.61    0.85
   3  -7  -3   16.25    1.09
   5   7  -5   73.44    3.28
   5   7  -5   76.28    3.50
   5   7  -5   73.70    2.97
   5  -7  -5   72.09    3.23
   5  -7  -5   70.87    3.23
   0   8   0  297.83   10.53
   0  -8   0  292.46   10.76
   0  -8   0  298.47   10.50
   0  -8   0  288.44   10.58
   2   8  -2   67.56    3.06
  -2   8   2   73.11    2.79
   2   8  -2   70.72    2.80
  -2  -8   2   74.84    3.10
  -2  -8   2   78.19    2.84
   2  -8  -2   67.10    2.82
   2  -8  -2   69.04    2.64
   4   8  -4   76.58    3.44
  -4   8   4   78.39    3.09
   4   8  -4   72.97    3.16
   4   8  -4   75.14    2.91
   4  -8  -4   69.43    3.10
   4  -8  -4   68.29    3.23
   6   8  -6  101.55    4.71
   6   8  -6  104.20    4.51
   6  -8  -6   98.71    4.42
  -1   9   1  509.18   17.91
   1   9  -1  507.87   18.21
   1  -9  -1  511.00   18.23
  -1  -9   1  546.05   18.48
  -1  -9   1  531.13   18.21
  -1  -9   1  501.18   18.09
   1  -9  -1  500.33   17.96
   1  -9  -1  503.93   18.35
  -3   9   3  157.58    5.73
   3   9  -3  151.24    5.82
   3   9  -3  157.36    6.14
   3   9  -3  153.62    5.65
  -3  -9   3  159.14    5.65
   3  -9  -3  147.81    6.07
   3  -9  -3  150.48    5.79
   5   9  -5  109.57    4.88
   5   9  -5  110.45    4.60
   5  -9  -5  107.93    4.55
   0  10   0  200.16    7.11
   0  10   0  202.09    7.32
   0 -10   0  192.41    7.37
   0 -10   0  197.13    7.61
   0 -10   0  190.78    7.25
   2  10  -2  206.33    7.68
  -2  10   2  192.04    7.21
   2 -10  -2  204.25    7.76
   2 -10  -2  205.26    7.12
  -2 -10   2  189.57    7.29
   2 -10  -2  208.04    7.75
  -2 -10   2  193.34    7.79
   4  10  -4  228.25    8.94
   4  10  -4  226.77    8.63
   4 -10  -4  232.29    8.54
   1  11  -1  189.37    7.31
   1  11  -1  193.38    7.59
  -1  11   1  211.92    7.22
   1 -11  -1  185.15    7.75
   1 -11  -1  194.51    7.29
   1 -11  -1  194.52    7.63
  -1 -11   1  212.67    7.54
  -1 -11   1  216.66    7.94
   3  11  -3  268.69    9.59
   3  11  -3  270.44   10.02
   3 -11  -3  260.34    9.94
  -3 -11   3  247.65    9.37
   5  11  -5  157.57    6.79
   5  11  -5  162.62    6.42
   5 -11  -5  158.10    6.74
   5 -11  -5  160.02    7.23
   0  12   0  169.83    6.56
   0 -12   0  171.10    6.76
   0 -12   0  171.14    6.67
   2  12  -2  218.00    8.30
  -2 -12   2  209.40    7.89
   2 -12  -2  213.46    8.29
   4  12  -4  274.10   10.05
   4  12  -4  269.26   10.50
   4 -12  -4  266.50   10.44
   1  13  -1  172.29    6.82
  -1 -13   1  170.72    6.68
   1 -13  -1  173.93    6.90
   3  13  -3  251.14    9.91
   3 -13  -3  258.38    9.93
   0 -14   0   95.69    4.28
   2  14  -2  150.09    6.25
   2 -14  -2  147.23    6.29
   8   0  -7   -0.14    1.00
   8   0  -7    1.19    0.72
   6   0  -5    0.43    0.37
  -6   0   5    0.01    0.44
  -6   0   5   -0.23    0.44
   6   0  -5    0.27    0.41
   4   0  -3    0.73    0.27
  -4   0   3    0.10    0.20
   4   0  -3   -0.03    0.16
  -4   0   3    0.10    0.19
  -4   0   3    0.10    0.24
  -2   0   1    0.03    0.10
   2   0  -1    0.11    0.10
   2   0  -1    0.08    0.12
  -2   0   1    0.11    0.09
   0   0  -1   -0.01    0.04
  -2   0   3    0.08    0.12
   2   0  -3    0.16    0.14
  -2   0   3    0.21    0.11
   2   0  -3    0.48    0.16
   4   0  -5    0.65    0.32
  -4   0   5    0.60    0.26
  -4   0   5    0.24    0.23
   4   0  -5    0.28    0.23
   6   0  -7    0.53    0.51
   6   0  -7   -0.14    0.45
   7   1  -6   35.15    2.15
   7   1  -6   36.25    2.05
   7  -1  -6   32.88    2.13
   7  -1  -6   33.48    1.85
   5   1  -4    7.32    0.69
  -5   1   4    4.84    0.57
  -5   1   4    5.52    0.60
   5   1  -4    6.24    0.65
   5   1  -4    6.50    0.72
   5  -1  -4    7.54    0.74
  -5  -1   4    4.97    0.62
  -5  -1   4    4.92    0.63
  -3   1   2  135.46    4.98
   3   1  -2  140.52    5.00
   3   1  -2  140.21    4.98
   3   1  -2  138.38    4.93
  -3   1   2  128.28    4.95
  -3   1   2  133.01    4.84
  -3  -1   2  127.71    4.94
   3  -1  -2  140.57    5.00
  -3  -1   2  131.39    4.98
   3  -1  -2  139.62    4.97
  -3  -1   2  129.64    4.96
   3  -1  -2  136.01    4.88
   1   1   0  145.19    4.99
   1   1   0  141.90    5.01
   1   1   0  138.06    5.02
  -1   1   0  141.07    5.02
   1  -1   0  140.60    5.05
   1  -1   0  141.87    5.02
  -1  -1   0  141.60    4.98
  -1  -1   0  146.48    5.03
  -1  -1   0  145.46    5.01
   1   1  -2   12.13    0.56
   1  -1  -2    8.88    0.52
  -3   1   4    3.58    0.30
  -3   1   4    4.20    0.41
  -3  -1   4    4.11    0.37
  -3  -1   4    4.59    0.45
   5   1  -6   12.84    0.98
   5   1  -6   12.18    1.05
  -5  -1   6    8.59    0.94
   5  -1  -6   12.56    1.04
   5  -1  -6   12.62    0.90
   7   1  -8   24.48    1.88
   7   1  -8   23.46    1.76
   7  -1  -8   23.28    1.64
   7  -1  -8   22.11    1.91
   6   2  -5   43.95    2.33
  -6   2   5   53.19    2.16
   6   2  -5   45.40    2.39
  -6   2   5   52.41    2.20
  -6  -2   5   54.23    2.38
   6  -2  -5   42.61    2.36
   6  -2  -5   43.00    2.09
  -4   2   3  102.87    3.80
   4   2  -3  105.59    4.05
   4   2  -3  105.91    4.05
  -4   2   3  101.14    3.94
   4   2  -3  105.49    3.95
  -4   2   3  103.48    4.02
   4  -2  -3  100.90    4.03
  -4  -2   3  108.29    4.06
   4  -2  -3  101.43    3.81
  -4  -2   3  104.20    4.01
   4  -2  -3   97.60    3.96
  -2   2   1  686.23   23.74
   0   2  -1   84.67    2.94
   0   2   1   83.79    2.98
   0  -2   1   81.37    2.93
   0  -2   1   77.56    2.98
  -2   2   3   36.65    1.46
   2   2  -3   35.36    1.35
   2   2  -3   33.94    1.53
  -2  -2   3   36.61    1.53
   2  -2  -3   34.72    1.37
   2  -2  -3   34.35    1.45
   2  -2  -3   33.86    1.39
   4   2  -5  255.99    9.36
   4   2  -5  262.02    9.16
   4   2  -5  254.23    9.37
   4  -2  -5  252.39    9.34
  -4  -2   5  261.56    9.36
   4  -2  -5  255.54    9.18
  -4  -2   5  254.46    9.20
   6   2  -7   72.47    3.19
   6   2  -7   76.91    3.45
   6   2  -7   73.73    3.34
  -6  -2   7   72.86    3.16
   6  -2  -7   72.95    3.13
   6  -2  -7   71.11    3.37
   7   3  -6  200.58    7.80
   7   3  -6  201.90    7.77
   7  -3  -6  195.40    7.80
   7  -3  -6  190.94    7.27
   5   3  -4  228.98    8.25
   5   3  -4  227.43    8.26
   5   3  -4  225.19    8.06
  -5   3   4  207.73    8.26
   5  -3  -4  223.24    8.21
   5  -3  -4  218.34    8.22
  -5  -3   4  223.89    8.24
  -5  -3   4  218.31    8.21
   5  -3  -4  210.56    7.85
   3   3  -2  177.64    6.51
  -3   3   2  175.19    6.43
   3   3  -2  183.15    6.39
  -3   3   2  173.17    6.42
   3   3  -2  181.98    6.45
   3  -3  -2  173.82    6.47
   3  -3  -2  173.75    6.17
  -3  -3   2  177.70    6.49
   3  -3  -2  177.41    6.46
   1   3  -2  170.18    5.75
  -1   3   2  157.86    5.80
   1   3  -2  170.75    5.97
  -1  -3   2  157.59    5.95
  -1  -3   2  162.70    5.95
   1  -3  -2  171.08    5.82
   1  -3  -2  170.01    5.88
  -3   3   4  426.39   14.42
   3   3  -4  407.64   14.27
   3   3  -4  401.84   14.54
   3   3  -4  403.31   14.49
  -3   3   4  431.77   14.20
   3  -3  -4  399.49   14.31
  -3  -3   4  439.81   14.56
   3  -3  -4  390.58   14.41
   3  -3  -4  386.97   14.26
   5   3  -6  276.39   10.06
   5   3  -6  277.32   10.06
   5   3  -6  277.27    9.73
  -5  -3   6  262.99    9.82
   5  -3  -6  265.41    9.97
   5  -3  -6  263.36    9.69
   7   3  -8   67.77    3.47
   7   3  -8   71.44    3.55
   7  -3  -8   69.52    3.52
   6   4  -5  122.59    4.89
  -6   4   5  133.63    4.56
   6   4  -5  111.50    4.62
   6   4  -5  119.34    4.92
   6  -4  -5  109.38    4.80
   6  -4  -5  111.57    4.66
   6  -4  -5  111.22    4.32
   4   4  -3  179.41    6.52
   4   4  -3  183.58    6.31
   4   4  -3  182.60    6.42
  -4   4   3  157.01    6.27
  -4   4   3  160.23    6.34
   4  -4  -3  170.19    6.40
  -4  -4   3  161.73    6.44
   4  -4  -3  176.27    6.42
   2  -4  -1  989.52   34.19
   0  -4  -1  493.03   15.84
   0  -4   1  441.73   15.69
   0  -4   1  446.80   15.73
   0  -4   1  431.31   15.84
  -2   4   3  589.02   20.03
   2   4  -3  585.59   20.22
  -2  -4   3  576.23   20.21
   2  -4  -3  579.66   20.28
   2  -4  -3  556.81   20.03
  -4   4   5  414.52   14.12
   4   4  -5  411.43   14.32
   4   4  -5  398.98   14.23
   4   4  -5  395.99   13.91
  -4  -4   5  402.58   14.30
   4  -4  -5  368.69   13.87
   4  -4  -5  392.50   13.97
   4  -4  -5  391.09   14.14
   6   4  -7  137.38    5.61
   6   4  -7  139.77    5.62
   6  -4  -7  134.08    5.10
   6  -4  -7  129.37    5.50
   7   5  -6  152.83    6.40
   7   5  -6  155.31    6.35
   7  -5  -6  153.20    6.37
  -5   5   4  217.27    7.60
   5   5  -4  202.44    7.73
   5   5  -4  211.15    7.60
   5   5  -4  196.93    8.11
   5  -5  -4  202.74    7.77
   3   5  -2  338.31   11.81
   3   5  -2  330.85   11.59
  -3   5   2  326.75   11.62
  -3   5   2  312.99   11.63
   3   5  -2  336.43   11.63
   3  -5  -2  332.87   11.66
  -3  -5   2  319.13   11.74
   3  -5  -2  329.19   11.75
  -3  -5   2  320.63   11.53
  -1   5   0   -0.03    0.14
  -1  -5   2  745.38   25.62
  -1  -5   2  710.12   25.69
   1  -5  -2  756.80   25.63
   3   5  -4  451.30   15.84
  -3   5   4  481.71   16.02
   3   5  -4  469.33   16.27
   3  -5  -4  450.82   16.04
   3  -5  -4  435.11   15.81
   3  -5  -4  451.58   16.03
  -3  -5   4  453.26   16.20
   5   5  -6  261.00    9.74
   5   5  -6  262.93    9.82
   5   5  -6  258.84    9.33
   5  -5  -6  264.41    9.41
   5  -5  -6  257.95    9.23
   5  -5  -6  256.88    9.63
   7   5  -8   79.59    3.92
   7   5  -8   77.98    3.90
   7  -5  -8   75.82    3.79
   6   6  -5  234.04    8.83
   6   6  -5  228.86    8.64
   6  -6  -5  217.17    8.50
   6  -6  -5  222.67    8.62
   4   6  -3  475.37   16.96
   4   6  -3  478.34   16.64
  -4   6   3  462.80   16.70
  -4   6   3  467.18   16.69
   4   6  -3  479.53   16.74
   4  -6  -3  472.46   16.75
   4  -6  -3  470.68   16.86
   2   6  -1  569.87   20.03
  -2   6   1  582.54   19.85
  -2   6   1  556.09   20.12
   2   6  -1  585.05   19.88
   2   6  -1  560.90   19.78
   2  -6  -1  583.68   19.89
  -2  -6   1  557.51   19.98
  -2  -6   1  557.79   19.84
   2  -6  -1  571.94   20.07
   0   6   1  354.53   12.38
   0   6   1  346.90   12.17
   0   6  -1  348.28   12.36
   0  -6   1  357.53   12.36
   0  -6  -1  361.77   12.48
   0  -6  -1  331.71   12.34
   0  -6   1  352.99   12.34
   0  -6   1  358.05   12.56
   2   6  -3  234.66    8.57
   2   6  -3  251.95    8.97
  -2  -6   3  251.21    9.00
   2  -6  -3  241.12    8.59
   2  -6  -3  226.25    8.83
  -2  -6   3  247.87    8.57
   2  -6  -3  243.77    8.69
  -2  -6   3  264.15    8.97
   4   6  -5  399.45   14.67
   4   6  -5  388.98   14.07
   4   6  -5  413.35   14.15
  -4   6   5  384.21   13.94
   4  -6  -5  390.24   13.72
   4  -6  -5  374.74   13.96
   4  -6  -5  395.92   14.01
   6   6  -7  243.49    9.55
   6   6  -7  249.39    9.47
   6  -6  -7  240.30    9.31
   6  -6  -7  248.47    9.00
   7   7  -6  132.46    5.61
   7   7  -6  130.45    5.78
   7  -7  -6  127.85    5.57
  -5   7   4  300.31   10.64
   5   7  -4  294.55   10.59
   5   7  -4  268.56   11.18
   5   7  -4  290.39   11.01
   5  -7  -4  286.44   10.78
   5  -7  -4  316.37   11.49
   3   7  -2  268.91   10.13
  -3   7   2  289.98   10.04
   3   7  -2  266.28    9.85
   3   7  -2  263.62    9.85
  -3   7   2  297.90    9.91
  -3  -7   2  272.47   10.09
   3  -7  -2  267.49    9.91
   3  -7  -2  265.47   10.09
  -3  -7   2  286.09    9.82
  -1   7   0  428.76   15.62
   1   7   0  452.83   15.85
  -1   7   0  431.65   15.69
   1   7   0  463.73   15.79
  -1  -7   0  450.33   15.83
   1  -7   0  459.71   15.97
  -1  -7   0  432.21   15.81
   1  -7   0  469.55   15.63
  -1   7   2  350.64   12.29
   1   7  -2  341.25   12.59
  -1  -7   2  371.83   12.61
   1  -7  -2  348.05   12.42
   1  -7  -2  353.07   12.65
  -1  -7   2  356.95   12.41
  -3   7   4  306.99   10.69
   3   7  -4  299.63   10.52
   3   7  -4  306.37   11.04
   3  -7  -4  302.26   10.73
   3  -7  -4  302.74   10.45
   3  -7  -4  288.76   10.88
  -3  -7   4  296.25   11.03
   5   7  -6  207.18    7.95
   5   7  -6  203.73    8.09
   5  -7  -6  208.28    7.72
   5  -7  -6  205.47    7.86
   6   8  -5  159.51    6.70
   6   8  -5  158.98    6.43
   6  -8  -5  162.74    6.47
  -4   8   3  138.80    5.93
   4   8  -3  162.70    6.34
   4   8  -3  163.93    6.03
   4   8  -3  164.72    5.93
   4  -8  -3  163.79    6.08
  -4  -8   3  146.99    5.83
   4  -8  -3  167.99    6.30
   2   8  -1  296.41   10.85
   2   8  -1  301.11   11.17
   2   8  -1  315.73   10.99
  -2   8   1  327.57   10.96
   2  -8  -1  296.62   10.69
   2  -8  -1  316.97   11.29
  -2  -8   1  292.90   11.12
  -2  -8   1  313.30   11.01
   0   8   1  206.33    7.21
   0   8  -1  189.26    7.16
   0   8   1  202.12    6.93
   0   8  -1  192.61    7.13
   0  -8  -1  196.11    7.38
   0  -8   1  198.21    7.18
   0  -8   1  198.85    7.15
   0  -8   1  190.51    7.39
   0  -8  -1  191.37    7.28
   0  -8  -1  197.81    7.16
   2   8  -3  317.46   11.36
  -2   8   3  310.62   10.94
   2  -8  -3  314.54   10.91
  -2  -8   3  306.39   10.91
   2  -8  -3  308.30   11.00
  -2  -8   3  296.05   11.29
   2  -8  -3  302.94   11.29
  -2  -8   3  323.58   11.46
   2  -8  -3  320.15   11.36
   4   8  -5   46.08    1.82
   4   8  -5   42.35    2.42
  -4   8   5   45.67    2.08
   4   8  -5   45.59    2.45
   4  -8  -5   45.91    2.26
   4  -8  -5   46.75    2.16
   6   8  -7  136.22    6.00
   6   8  -7  138.46    5.82
   6  -8  -7  136.53    5.67
   5   9  -4  187.53    7.12
   5   9  -4  182.56    7.45
   5  -9  -4  184.29    7.15
   3   9  -2   96.42    3.81
  -3   9   2  107.04    3.86
   3   9  -2   93.07    3.79
   3  -9  -2   94.27    4.15
   3  -9  -2   90.44    3.86
  -3  -9   2  102.34    3.80
   1   9   0  205.47    7.02
   1   9   0  212.67    7.35
  -1   9   0  184.29    7.06
  -1   9   0  179.31    7.04
   1  -9   0  203.80    7.48
  -1  -9   0  187.05    7.23
  -1  -9   0  184.28    7.23
  -1  -9   0  181.70    7.43
   1  -9   0  203.21    7.05
   1  -9   0  206.33    7.28
  -1   9   2  216.61    7.93
   1   9  -2  239.53    8.40
   1  -9  -2  227.59    8.46
  -1  -9   2  219.40    8.52
  -1  -9   2  223.18    8.31
   1  -9  -2  234.95    8.43
  -1  -9   2  210.91    8.12
   1  -9  -2  231.07    8.12
   3   9  -4  145.02    5.56
  -3   9   4  130.46    5.03
   3  -9  -4  139.62    5.50
  -3  -9   4  127.63    4.87
   3  -9  -4  140.44    5.12
   3  -9  -4  127.74    5.84
   5   9  -6   57.56    2.93
   5   9  -6   56.75    3.13
   5  -9  -6   60.22    2.87
   4  10  -3   54.46    2.54
   4  10  -3   55.38    2.90
   4 -10  -3   58.13    2.68
  -4 -10   3   57.26    2.44
   2  10  -1   26.83    1.67
   2  10  -1   26.38    1.33
   2 -10  -1   29.50    1.76
   2 -10  -1   28.86    1.67
   2 -10  -1   29.08    1.24
   0  10  -1  118.88    4.61
   0  10  -1  124.09    4.72
   0  10   1  119.92    4.38
   0 -10  -1  124.58    4.87
   0 -10   1  120.92    4.73
   0 -10   1  114.76    4.66
   0 -10   1  122.44    5.03
   0 -10  -1  121.19    5.00
   0 -10  -1  122.56    4.68
  -2  10   3  156.97    5.54
   2 -10  -3  156.35    5.55
  -2 -10   3  147.42    6.19
   2 -10  -3  153.81    6.08
   2 -10  -3  151.27    6.07
  -2 -10   3  149.68    5.58
   4  10  -5   22.16    1.84
   4  10  -5   24.64    1.60
   4 -10  -5   25.51    1.49
   4 -10  -5   24.31    1.81
   5  11  -4   21.49    1.62
   5  11  -4   23.35    1.97
   5 -11  -4   23.75    1.82
   3  11  -2    4.49    0.89
   3  11  -2    4.44    0.71
   3 -11  -2    4.54    0.84
  -3 -11   2    5.25    0.72
   1  11   0   13.51    0.82
  -1  11   0   11.70    0.92
   1  11   0   14.05    1.12
  -1  11   0   11.63    0.90
  -1 -11   0   11.84    1.24
   1 -11   0   11.96    0.86
   1 -11   0   12.68    1.09
  -1 -11   0   11.71    1.07
   1 -11   0   12.51    1.24
   1  11  -2   28.91    1.65
  -1  11   2   32.46    1.30
   1  11  -2   31.13    1.78
  -1 -11   2   30.58    1.59
   1 -11  -2   32.34    1.91
   1 -11  -2   30.10    1.85
  -1 -11   2   29.12    1.93
   1 -11  -2   30.77    1.52
   3  11  -4    7.70    1.17
   3 -11  -4    6.02    1.05
   4  12  -3    1.24    0.76
   4 -12  -3    0.72    0.72
   2  12  -1    1.76    0.46
   2  12  -1    1.28    0.64
  -2 -12   1    1.86    0.58
   2 -12  -1    1.34    0.63
   0  12  -1    7.52    0.93
   0 -12   1    6.14    0.91
   0 -12  -1    7.90    1.07
   2  12  -3    8.57    1.19
   2 -12  -3    7.37    1.17
  -2 -12   3    8.74    0.82
   4  12  -5   24.11    1.70
   4  12  -5   21.25    1.94
   4 -12  -5   18.93    1.89
   3  13  -2   37.55    2.45
   3 -13  -2   36.14    2.36
  -1 -13   0   41.37    2.22
   1 -13   0   35.16    2.16
   1  13  -2   33.28    2.08
   1 -13  -2   34.57    2.20
  -1 -13   2   37.99    1.95
   3  13  -4   44.94    2.38
   3  13  -4   46.75    2.77
   3 -13  -4   44.37    2.72
   2  14  -1   41.37    2.54
   2 -14  -1   40.58    2.51
   0  14  -1  129.60    5.30
   0 -14  -1  132.16    5.51
   0 -14   1  124.15    5.30
   2 -14  -3   94.51    4.48
   8   0  -6  128.95    5.12
   8   0  -6  114.79    5.36
  -6   0   4  211.69    8.33
  -6   0   4  212.16    8.47
   6   0  -4  242.68    8.63
   6   0  -4  242.81    8.42
   4   0  -2  844.62   29.39
  -4   0   2  859.71   29.31
  -4   0   2  866.30   29.43
  -4   0   2  804.96   29.44
   4   0  -2  852.06   29.45
  -2   0   0   -0.04    0.07
   4   0  -6  477.43   17.17
   4   0  -6  489.69   17.14
   6   0  -8   77.43    3.55
   6   0  -8   73.17    3.40
   7   1  -5  141.62    5.90
   7  -1  -5  142.98    5.93
   7  -1  -5  147.21    5.60
  -5   1   3  242.15    8.15
   5   1  -3  226.53    8.26
   5   1  -3  232.79    8.36
  -5   1   3  228.46    8.31
   5   1  -3  228.28    8.26
  -5   1   3  203.68    8.33
   5  -1  -3  226.24    8.12
  -5  -1   3  219.68    8.33
  -5  -1   3  225.23    8.22
   5  -1  -3  231.37    8.36
  -5  -1   3  210.38    8.28
  -3  -1   1 1000.00   34.56
  -1  -1  -1  370.33   12.87
   3   1  -5  417.01   14.33
   3   1  -5  412.56   14.31
  -3  -1   5  400.83   14.28
  -3  -1   5  389.29   14.26
  -3  -1   5  391.71   14.01
   3  -1  -5  406.04   14.23
   3  -1  -5  408.87   14.28
   5   1  -7  278.96   10.28
   5   1  -7  286.82   10.38
   5  -1  -7  271.71   10.16
   5  -1  -7  277.62   10.45
   7   1  -9  213.00    8.52
   7   1  -9  209.32    8.30
   7  -1  -9  208.61    8.44
   7  -1  -9  216.94    8.18
   8   2  -6   92.74    4.21
   8   2  -6   90.98    4.34
   8  -2  -6   91.10    4.37
   6   2  -4  249.66    9.31
  -6   2   4  255.56    8.94
  -6   2   4  252.02    9.16
   6   2  -4  247.09    9.23
   6  -2  -4  235.78    9.29
   6  -2  -4  249.71    8.96
  -6  -2   4  245.44    9.27
   4   2  -2  367.35   13.52
  -4   2   2  385.57   13.29
   4   2  -2  380.27   13.48
  -4   2   2  375.48   13.55
   4   2  -2  376.32   13.53
  -4   2   2  390.94   13.54
   4  -2  -2  377.98   13.57
  -4  -2   2  376.61   13.51
   4  -2  -2  391.15   13.31
   4  -2  -2  378.32   13.56
  -4  -2   2  381.74   13.66
  -4  -2   2  390.22   13.52
  -2   2   0  371.60   12.55
   2   2   0  351.40   12.56
   2   2   0  346.68   12.52
   2   2   0  330.89   12.46
   2  -2   0  362.44   12.56
   2  -2   0  340.42   12.60
  -2  -2   0  369.55   12.56
  -2  -2   0  376.15   12.54
  -2  -2   0  372.67   12.48
   0   2   2  192.85    6.14
   0   2  -2  150.94    6.08
   0   2  -2  155.45    6.06
   0  -2  -2  167.11    6.14
   0  -2   2  191.58    6.13
   2   2  -4  645.60   23.26
  -2  -2   4  690.35   23.28
   4   2  -6  256.93    9.37
   4   2  -6  254.41    9.37
   4  -2  -6  261.14    9.32
  -4  -2   6  255.80    9.08
   4  -2  -6  257.65    9.19
  -4  -2   6  247.32    9.33
  -4  -2   6  248.08    9.13
   6   2  -8   99.36    4.34
   6   2  -8   95.34    4.36
   6  -2  -8  103.62    4.13
   6  -2  -8   99.38    4.36
   7   3  -5  108.33    4.69
   7   3  -5  111.80    4.75
   7  -3  -5  111.37    4.25
   7  -3  -5  107.62    4.75
  -5   3   3  140.29    5.52
  -5   3   3  138.26    5.21
   5   3  -3  151.53    5.65
   5   3  -3  151.45    5.62
   5   3  -3  151.19    5.52
   5  -3  -3  151.17    5.65
   5  -3  -3  146.36    5.25
   5  -3  -3  141.20    5.58
  -5  -3   3  132.84    5.57
   3   3  -1  167.53    5.92
   3   3  -1  154.24    5.97
   3   3  -1  155.82    5.88
  -3   3   1  167.55    5.95
  -3  -3   1  166.94    5.91
  -3  -3   1  161.86    5.98
  -3  -3   1  162.29    5.88
   3  -3  -1  160.33    5.96
  -1   3  -1  514.35   17.20
  -1   3  -1  473.20   17.25
   1   3   1  487.07   17.22
  -1  -3  -1  494.38   17.23
   1  -3   1  493.54   17.27
  -1  -3  -1  496.82   17.22
   1  -3   1  502.83   17.20
   1   3  -3  465.89   15.95
   1  -3  -3  447.84   15.93
  -1  -3   3  442.43   15.89
  -1  -3   3  466.73   15.94
   3   3  -5  193.07    7.25
   3   3  -5  193.19    6.90
  -3  -3   5  198.63    7.06
   3  -3  -5  194.01    6.89
  -3  -3   5  199.12    7.24
   3  -3  -5  191.28    7.03
   3  -3  -5  197.51    7.12
   5   3  -7   92.62    4.06
   5   3  -7   92.89    3.69
   5   3  -7   93.04    4.06
   5  -3  -7   93.93    3.78
  -5  -3   7  102.64    3.79
   7   3  -9   93.26    4.56
   7   3  -9   92.71    4.36
   7  -3  -9   92.39    4.37
   6   4  -4  106.70    4.35
   6   4  -4  101.33    4.38
  -6   4   4  102.57    4.15
   6  -4  -4  103.95    4.27
   6  -4  -4  104.99    4.39
  -6  -4   4   97.31    4.32
   4   4  -2  144.67    5.64
   4   4  -2  146.04    5.50
  -4   4   2  157.00    5.59
  -4   4   2  150.91    5.59
   4   4  -2  142.01    5.51
   4  -4  -2  145.37    5.63
   4  -4  -2  149.35    5.60
  -4  -4   2  141.71    5.59
   2   4   0  272.53    9.52
   2   4   0  270.74    9.37
  -2   4   0  258.62    9.47
   2   4   0  262.81    9.55
  -2  -4   0  275.10    9.56
   2  -4   0  259.16    9.58
  -2  -4   0  265.23    9.48
   2  -4   0  272.85    9.51
   0   4  -2  207.29    7.36
   0   4   2  204.64    7.31
   0   4  -2  203.57    7.23
   0  -4   2  199.13    7.32
   0  -4  -2  201.01    7.31
   0  -4  -2  207.05    7.25
   0  -4   2  199.81    7.22
   2   4  -4    9.04    0.70
   2  -4  -4    9.45    0.56
   2  -4  -4    9.02    0.56
   4   4  -6   63.11    2.75
   4   4  -6   52.28    2.47
   4   4  -6   58.95    2.67
   4  -4  -6   59.46    2.55
   4  -4  -6   62.03    2.31
   4  -4  -6   54.75    2.37
   6   4  -8   15.40    1.48
   6   4  -8   14.18    1.50
   6  -4  -8   16.88    1.16
   6  -4  -8   15.65    1.46
   7   5  -5   14.42    1.44
   7   5  -5   14.56    1.52
   7  -5  -5   14.52    1.54
   5   5  -3   25.46    1.42
   5   5  -3   26.32    1.48
   5   5  -3   24.67    1.58
   5  -5  -3   25.60    1.53
   5  -5  -3   25.89    1.52
   3   5  -1   24.26    1.27
   3   5  -1   24.86    1.11
   3   5  -1   24.28    1.18
  -3   5   1   18.32    1.10
  -3  -5   1   20.25    1.09
  -3  -5   1   19.19    1.19
   3  -5  -1   22.78    1.26
   3  -5  -1   22.37    1.19
   1   5   1   13.97    0.85
  -1   5  -1   16.09    0.93
  -1   5  -1   16.14    0.84
  -1   5  -1   16.43    0.80
   1   5   1   14.03    0.85
  -1  -5  -1   16.66    0.88
   1  -5   1   14.60    0.71
  -1  -5  -1   16.09    0.89
   1  -5   1   14.29    0.90
   1   5  -3   93.44    3.62
  -1  -5   3   92.46    3.65
   1  -5  -3   88.77    3.40
   1  -5  -3   93.10    3.65
  -1  -5   3   93.56    3.61
   1  -5  -3   99.36    3.57
   3   5  -5   16.93    1.17
   3   5  -5   17.35    0.76
   3  -5  -5   18.92    1.01
  -3  -5   5   17.28    1.11
   3  -5  -5   18.59    0.96
   3  -5  -5   19.68    0.95
   5   5  -7   90.13    3.98
   5   5  -7   89.57    3.53
   5   5  -7   91.13    4.04
   5  -5  -7   92.98    3.50
   5  -5  -7   89.45    3.54
   6   6  -4    4.61    0.90
   6   6  -4    4.46    0.80
   6  -6  -4    6.78    1.02
   4   6  -2   49.75    2.43
   4   6  -2   50.92    2.25
  -4   6   2   49.64    2.27
  -4   6   2   50.09    2.30
   4   6  -2   51.99    2.24
   4  -6  -2   51.76    2.42
   4  -6  -2   54.02    2.35
  -4  -6   2   49.61    2.19
   2   6   0   16.57    0.94
   2   6   0   15.52    0.76
   2   6   0   15.97    0.99
  -2   6   0   14.72    0.87
  -2  -6   0   17.91    1.01
  -2  -6   0   15.91    0.91
   2  -6   0   13.58    0.88
   2  -6   0   13.74    0.95
   0   6  -2    4.23    0.43
   0  -6   2    4.36    0.44
   0  -6  -2    4.46    0.49
   0  -6   2    4.56    0.54
   0  -6   2    4.38    0.38
   0  -6  -2    3.96    0.43
   2   6  -4   40.45    1.90
   2  -6  -4   39.20    1.62
   2  -6  -4   38.49    1.88
  -2  -6   4   38.39    1.87
   2  -6  -4   39.04    1.75
  -2  -6   4   37.59    1.85
   4   6  -6    2.39    0.68
   4   6  -6    3.17    0.68
   4   6  -6    2.65    0.34
   4  -6  -6    3.61    0.59
   4  -6  -6    3.74    0.48
   4  -6  -6    3.63    0.52
   6   6  -8    4.75    1.04
   6   6  -8    4.38    1.03
   6  -6  -8    5.20    1.01
   7   7  -5    6.90    1.31
   7   7  -5    5.16    1.02
   7  -7  -5    6.12    1.20
   5   7  -3   27.38    1.75
  -5   7   3   24.42    1.47
   5   7  -3   26.64    1.53
   5   7  -3   25.92    1.51
   5  -7  -3   25.80    1.65
   5  -7  -3   26.79    1.65
  -3   7   1  139.36    5.34
   3   7  -1  135.77    5.08
   3   7  -1  137.88    5.21
   3   7  -1  137.76    5.38
  -3   7   1  142.56    5.20
  -3  -7   1  142.13    5.17
  -3  -7   1  133.83    5.34
   3  -7  -1  126.24    5.35
   3  -7  -1  139.06    5.25
   1   7   1    3.38    0.50
   1   7   1    3.73    0.50
  -1   7  -1    4.93    0.50
   1  -7   1    2.83    0.39
  -1   7   3  117.90    4.05
   1   7  -3  109.44    4.43
   1  -7  -3  108.12    4.25
  -1  -7   3  123.71    4.46
  -1  -7   3  121.49    4.57
   1  -7  -3  103.96    4.45
   1  -7  -3  105.75    4.41
  -1  -7   3  123.85    4.14
   3   7  -5   97.72    4.07
   3  -7  -5   95.04    3.71
   3  -7  -5   93.42    3.82
   3  -7  -5   98.09    4.06
   5   7  -7    7.99    1.19
   5   7  -7   10.60    1.23
   5  -7  -7    9.01    1.28
   5  -7  -7    8.52    0.80
   6   8  -4   48.53    2.49
   6   8  -4   47.92    2.75
   6  -8  -4   45.35    2.56
  -4   8   2  145.04    5.70
   4   8  -2  147.13    5.52
  -4   8   2  137.52    5.76
   4   8  -2  148.90    5.58
   4   8  -2  152.38    5.89
   4  -8  -2  138.49    5.62
   4  -8  -2  147.00    6.18
  -4  -8   2  147.74    5.51
  -2   8   0   75.95    3.05
   2   8   0   76.58    3.12
  -2   8   0   77.54    2.80
   2   8   0   77.25    3.24
   2   8   0   72.43    2.83
   2  -8   0   74.13    3.29
  -2  -8   0   72.90    3.18
  -2  -8   0   76.12    3.11
   0   8  -2   83.54    3.44
   0   8  -2   83.81    3.40
   0  -8   2   89.40    3.40
   0  -8  -2   84.28    3.39
   0  -8   2   86.85    3.33
   0  -8  -2   82.41    3.53
   0  -8   2   91.29    3.67
  -2   8   4  191.53    7.57
   2   8  -4  217.39    7.98
   2  -8  -4  218.35    8.00
   2  -8  -4  218.68    7.58
  -2  -8   4  225.70    8.07
   2  -8  -4  203.37    7.52
   2  -8  -4  203.87    7.84
   4   8  -6  113.55    4.65
   4   8  -6  105.76    4.73
   4  -8  -6  113.40    4.78
   4  -8  -6  111.69    4.46
   4  -8  -6  111.00    4.40
   5   9  -3  144.45    5.97
   5  -9  -3  139.12    5.69
  -3   9   1  274.61   10.00
   3   9  -1  279.17   10.05
   3   9  -1  272.40    9.86
   3  -9  -1  264.15   10.33
  -3  -9   1  289.41   10.04
  -1   9  -1  233.16    8.26
  -1   9  -1  233.50    8.36
   1  -9   1  217.76    8.35
   1  -9   1  222.11    8.65
  -1  -9  -1  234.16    8.52
  -1  -9  -1  246.77    8.48
   1  -9   1  214.31    8.20
   1   9  -3  314.90   10.75
   1  -9  -3  302.38   10.83
  -1  -9   3  269.76   10.64
  -1  -9   3  282.49   10.86
  -1  -9   3  283.16   10.36
   1  -9  -3  303.96   10.50
   1  -9  -3  297.56   10.81
   3   9  -5  205.00    7.85
   3  -9  -5  205.23    7.21
   3  -9  -5  201.36    7.84
   3  -9  -5  198.53    7.36
   3  -9  -5  200.59    7.69
   5   9  -7   85.84    3.91
   5   9  -7   83.52    4.08
   5  -9  -7   82.12    3.65
   5  -9  -7   79.50    3.97
   6  10  -4   96.39    5.31
   6  10  -4  101.56    4.34
   6 -10  -4   97.44    4.47
   4  10  -2  204.31    7.81
   4  10  -2  199.33    7.28
   4  10  -2  181.79    7.31
  -4 -10   2  198.34    7.30
   4 -10  -2  195.19    7.46
   2  10   0  333.76   11.89
   2  10   0  349.03   12.45
  -2  10   0  324.16   12.14
  -2 -10   0  327.04   12.26
   2 -10   0  338.05   11.89
   2 -10   0  352.28   12.64
   2 -10   0  349.17   12.35
   0  10  -2  234.76    8.62
   0  10  -2  228.80    8.61
   0 -10   2  238.47    8.93
   0 -10   2  241.90    8.54
   0 -10   2  229.96    8.56
   0 -10  -2  230.43    8.87
   0 -10  -2  233.52    8.57
   0 -10  -2  232.12    8.78
   2  10  -4  196.07    7.43
   2 -10  -4  188.70    7.35
  -2 -10   4  184.00    6.75
   2 -10  -4  193.04    7.44
   2 -10  -4  192.85    6.92
   4  10  -6  143.22    6.11
   4  10  -6  145.76    5.87
   4 -10  -6  146.60    5.55
   4 -10  -6  141.06    6.04
   5  11  -3  163.15    7.00
   5  11  -3  166.96    6.48
   5 -11  -3  169.53    6.68
   3  11  -1  178.93    6.65
   3  11  -1  183.52    7.24
  -3 -11   1  182.26    6.88
  -1  11  -1  207.60    7.76
  -1  11  -1  211.38    7.71
  -1 -11  -1  217.43    8.04
   1 -11   1  214.26    8.24
   1 -11   1  204.15    7.84
   1 -11   1  202.52    7.64
   1  11  -3  304.46   11.06
   1 -11  -3  300.39   10.73
   1 -11  -3  297.32   11.17
   1 -11  -3  300.37   11.15
  -1 -11   3  293.22   10.63
  -1 -11   3  291.21   11.33
   3  11  -5  151.05    6.23
   3 -11  -5  148.54    6.20
   4  12  -2  104.97    4.87
  -4 -12   2  111.49    4.37
   4 -12  -2  103.97    4.77
   2  12   0  252.35    9.53
  -2 -12   0  238.63    9.63
   2 -12   0  255.47    9.43
   0  12  -2  359.59   13.84
   0  12  -2  388.62   13.66
   0 -12   2  374.96   13.56
   0 -12  -2  385.20   13.90
   2  12  -4  132.05    5.57
   2 -12  -4  134.09    5.67
   3  13  -1  177.16    7.14
   3 -13  -1  176.42    6.99
  -3 -13   1  162.59    6.64
  -1  13  -1  270.51   10.04
  -1 -13  -1  277.02   10.39
   1 -13   1  274.77   10.25
   1  13  -3  158.25    6.41
   1 -13  -3  161.27    6.60
   2 -14   0  121.71    5.24
  -2 -14   0  121.16    5.12
   0  14  -2  136.98    5.60
   0 -14  -2  136.90    5.85
   8   0  -5   -0.08    0.65
   8   0  -5   -0.93    0.63
  -6   0   3    0.32    0.38
  -6   0   3    0.84    0.53
   6   0  -3    0.02    0.32
   6   0  -3    0.36    0.43
  -4   0   1    0.33    0.24
   4   0  -1    0.50    0.24
  -4   0   1    0.18    0.25
  -4   0   1   -0.07    0.20
   4   0  -1    0.28    0.22
   4   0  -1   -0.13    0.18
   2   0   1    0.34    0.15
   2   0   1    0.40    0.17
  -2   0  -1    0.06    0.12
  -2   0  -1    0.11    0.12
   2   0   1    0.21    0.19
   0   0  -3    0.18    0.10
   0   0   3    0.43    0.15
   0   0   3    0.10    0.10
   0   0  -3    0.19    0.12
   2   0  -5    0.18    0.14
   2   0  -5    0.30    0.19
   4   0  -7   -0.09    0.31
   4   0  -7    0.00    0.26
   6   0  -9    0.57    0.62
   6   0  -9   -0.22    0.53
   7   1  -4   25.97    1.75
   7   1  -4   25.34    1.64
   7  -1  -4   24.04    1.73
   7  -1  -4   22.98    1.45
   5   1  -2  106.34    4.07
   5   1  -2  101.58    4.05
  -5   1   2   99.35    4.17
  -5   1   2  105.25    3.91
   5   1  -2  107.97    4.13
  -5   1   2   93.84    4.07
   5  -1  -2  105.37    3.93
  -5  -1   2  104.07    4.02
  -5  -1   2   98.60    4.08
   5  -1  -2  108.47    4.17
   5  -1  -2   92.89    4.03
  -3   1   0  158.37    5.99
   3   1   0  169.79    6.00
   3   1   0  166.45    6.00
   3   1   0  164.54    5.98
  -3   1   0  159.52    5.87
  -3  -1   0  160.29    5.96
  -3  -1   0  161.30    5.97
   3  -1   0  176.55    6.13
  -3  -1   0  156.60    6.08
   3  -1   0  170.56    6.04
  -1   1  -2    6.44    0.45
  -1   1  -2    7.81    0.42
  -1   1  -2    6.27    0.48
  -1  -1  -2    6.28    0.38
  -1  -1  -2    6.16    0.44
  -1  -1  -2    5.93    0.43
   1   1  -4   51.22    1.92
   1   1  -4   51.48    2.11
   1   1  -4   50.83    1.95
   1  -1  -4   52.33    2.02
  -1  -1   4   49.64    1.91
   3   1  -6    9.52    0.79
   3   1  -6    9.85    0.77
   3  -1  -6    9.83    0.75
   3  -1  -6   10.74    0.76
   5   1  -8   37.33    2.04
   5  -1  -8   34.03    1.88
   5  -1  -8   32.03    1.92
   8   2  -5   41.36    2.49
   8   2  -5   39.86    2.55
   8  -2  -5   41.28    2.61
   6   2  -3  151.30    5.76
   6   2  -3  144.62    5.68
  -6   2   3  141.01    5.68
  -6   2   3  144.10    5.38
  -6  -2   3  141.46    5.80
   6  -2  -3  145.50    5.77
   4   2  -1  121.81    4.84
   4   2  -1  126.60    4.90
  -4   2   1  130.79    4.91
   4   2  -1  124.94    4.86
  -4   2   1  127.76    5.00
  -4   2   1  133.60    4.66
  -4  -2   1  134.74    4.87
  -4  -2   1  138.83    4.92
   4  -2  -1  123.78    4.97
   4  -2  -1  122.77    4.91
  -2   2  -1   20.49    1.05
   2   2   1   23.23    1.00
   2   2   1   25.21    1.11
  -2  -2  -1   21.39    1.08
   2  -2   1   24.28    1.10
  -2  -2  -1   21.84    0.98
   0   2  -3  458.53   16.20
   0   2   3  476.09   16.22
   0  -2  -3  465.61   16.22
   0  -2   3  458.26   16.18
   2   2  -5  154.08    5.07
   2   2  -5  140.99    5.25
  -2  -2   5  126.96    5.19
  -2  -2   5  128.94    5.00
   2  -2  -5  143.45    5.13
   2  -2  -5  140.28    5.17
   2  -2  -5  140.84    5.17
   4   2  -7   62.15    2.85
   4   2  -7   63.31    2.87
   4  -2  -7   63.95    2.79
  -4  -2   7   67.23    2.46
   4  -2  -7   59.42    2.70
   6   2  -9   98.87    4.43
   6   2  -9  104.06    4.54
   6  -2  -9   99.00    4.44
   6  -2  -9   96.58    4.27
   7   3  -4  105.69    4.52
   7   3  -4  104.91    4.50
   7  -3  -4  100.07    4.55
  -5   3   2  454.75   16.23
  -5   3   2  456.44   15.80
   5   3  -2  462.77   16.19
   5   3  -2  450.79   16.13
   5   3  -2  454.47   16.23
   5  -3  -2  435.86   16.26
  -5  -3   2  473.89   16.36
   5  -3  -2  446.32   16.24
  -5  -3   2  449.74   16.14
  -5  -3   2  457.57   16.20
   3   3   0  128.73    5.01
  -3   3   0  128.92    4.70
   3   3   0  128.72    4.88
  -3   3   0  131.94    4.97
   3   3   0  138.91    4.99
   3  -3   0  133.10    5.10
  -3  -3   0  136.51    4.88
  -3  -3   0  133.54    4.96
   3  -3   0  134.89    5.02
  -3  -3   0  136.69    5.01
  -1   3  -2  477.72   16.44
   1   3   2  491.40   16.47
  -1   3  -2  442.91   16.49
  -1   3  -2  437.37   16.41
   1  -3   2  496.11   16.50
  -1  -3  -2  462.32   16.45
  -1  -3  -2  481.34   16.44
   1   3  -4  325.56   11.13
   1   3  -4  315.91   11.16
  -1  -3   4  317.56   11.08
   1  -3  -4  295.68   11.02
   3   3  -6  208.31    7.64
  -3  -3   6  204.94    7.35
   3  -3  -6  203.84    7.46
   3  -3  -6  202.66    7.45
  -3  -3   6  201.39    7.60
   5   3  -8  110.66    4.69
   5   3  -8  112.76    4.20
   5   3  -8  108.94    4.66
  -5  -3   8  105.63    4.14
   5  -3  -8  110.07    4.57
   5  -3  -8  109.50    4.40
   8   4  -5  111.61    4.96
   8   4  -5  107.82    4.96
   8  -4  -5  108.95    5.00
  -6   4   3  194.14    7.79
   6   4  -3  208.05    7.94
   6   4  -3  213.07    7.87
   6  -4  -3  207.05    7.91
   6  -4  -3  215.81    7.96
  -6  -4   3  199.69    7.97
   4   4  -1  220.15    8.47
   4   4  -1  227.00    8.54
  -4   4   1  243.91    8.59
   4   4  -1  219.43    8.62
   4  -4  -1  226.76    8.68
  -4  -4   1  248.60    8.54
   4  -4  -1  230.83    8.61
  -4  -4   1  244.64    8.48
  -4  -4   1  248.87    8.66
  -2   4  -1  332.88   10.87
   2   4   1  265.76   10.69
   2   4   1  300.93   10.86
  -2   4  -1  302.15   10.62
  -2  -4  -1  316.60   10.87
   2  -4   1  271.08   10.81
  -2  -4  -1  337.55   10.92
  -2  -4  -1  312.48   10.63
   2   4  -5  486.28   16.74
   2  -4  -5  479.21   16.49
  -2  -4   5  457.73   16.58
   2  -4  -5  473.41   16.69
  -2  -4   5  460.46   16.71
   2  -4  -5  476.53   16.39
   4   4  -7  100.22    3.63
   4   4  -7  102.44    4.22
   4  -4  -7   95.79    3.87
   4  -4  -7   95.70    3.97
   6   4  -9  301.51   11.30
   6   4  -9  295.81   11.29
   6  -4  -9  284.51   11.08
   6  -4  -9  298.63   10.81
   7   5  -4  163.22    6.77
   7   5  -4  165.94    6.67
   7  -5  -4  167.69    6.76
  -5   5   2  262.21    9.71
   5   5  -2  269.48    9.81
   5   5  -2  260.10    9.63
   5   5  -2  260.85    9.60
   5  -5  -2  264.53    9.75
   5  -5  -2  257.07    9.78
  -3   5   0  408.93   14.57
   3   5   0  413.81   14.60
   3   5   0  405.95   14.41
   3  -5   0  414.14   14.61
  -3  -5   0  414.79   14.65
   3  -5   0  406.58   14.73
  -3  -5   0  416.11   14.56
   1   5   2  557.21   20.51
  -1   5  -2  592.68   20.33
  -1   5  -2  598.37   20.51
  -1  -5  -2  587.81   20.48
  -1  -5  -2  593.00   20.55
   1   5  -4  548.71   18.91
  -1  -5   4  522.87   18.89
   1  -5  -4  550.00   18.94
  -1  -5   4  529.28   18.88
   3   5  -6  297.85   10.81
   3  -5  -6  297.12   10.37
   3  -5  -6  297.74   10.51
   3  -5  -6  287.79   10.50
   3  -5  -6  288.70   10.74
   5   5  -8  206.68    8.22
   5   5  -8  211.21    8.19
   5  -5  -8  214.61    7.74
   5  -5  -8  206.59    7.97
   6   6  -3  296.60   11.39
   6   6  -3  304.63   11.19
   6  -6  -3  307.59   11.33
   4   6  -1  527.97   19.50
  -4   6   1  536.67   19.33
   4   6  -1  520.94   19.20
  -4   6   1  627.21   19.95
   4   6  -1  526.39   19.33
  -4  -6   1  562.92   19.30
   4  -6  -1  536.68   19.39
   4  -6  -1  541.34   19.54
   2   6   1  351.02   12.13
  -2   6  -1  322.32   11.72
   2   6   1  355.98   12.09
   2   6   1  335.54   11.73
  -2   6  -1  340.09   12.02
   2  -6   1  341.00   12.19
  -2  -6  -1  322.51   12.06
  -2  -6  -1  327.62   12.05
   0   6  -3  618.16   21.79
   0  -6   3  646.41   21.98
   0  -6  -3  610.18   21.90
   0  -6   3  621.79   21.77
   0  -6  -3  617.61   21.79
   0  -6   3  628.99   21.57
   2   6  -5  313.74   11.10
  -2  -6   5  291.63   11.03
   2  -6  -5  309.60   10.71
   2  -6  -5  308.78   11.09
  -2  -6   5  293.91   11.01
   2  -6  -5  307.01   10.83
   4   6  -7  188.12    7.12
   4   6  -7  182.55    7.19
   4  -6  -7  180.57    6.71
   4  -6  -7  178.93    6.85
   4  -6  -7  183.36    7.14
   4  -6  -7  183.68    6.63
   6   6  -9  188.02    7.69
   6   6  -9  185.27    7.75
   6  -6  -9  190.78    7.50
   6  -6  -9  189.55    7.66
   7   7  -4  192.47    7.50
   7   7  -4  185.77    7.76
   7  -7  -4  188.93    7.63
  -5   7   2  215.66    8.46
   5   7  -2  235.34    8.72
   5   7  -2  224.02    8.45
   5   7  -2  235.74    8.38
   5  -7  -2  206.44    8.94
  -5  -7   2  233.39    8.35
   3   7   0  248.57    9.48
   3   7   0  273.71    9.42
   3   7   0  255.83    9.12
  -3   7   0  255.05    9.33
   3  -7   0  265.22    9.41
  -3  -7   0  253.14    9.33
  -3  -7   0  238.55    9.47
   3  -7   0  262.55    9.60
  -1   7  -2  374.62   12.92
  -1   7  -2  366.23   12.73
   1   7   2  357.81   12.95
  -1  -7  -2  363.88   12.99
   1  -7   2  338.13   12.70
   1  -7   2  359.77   13.08
  -1  -7  -2  370.12   12.92
   1   7  -4  225.66    8.51
  -1  -7   4  239.44    8.53
  -1  -7   4  231.13    8.61
   1  -7  -4  236.14    8.38
   1  -7  -4  231.06    8.60
   1  -7  -4  228.02    8.47
   3   7  -6  421.78   15.16
   3  -7  -6  420.61   15.14
   3  -7  -6  415.24   14.81
   3  -7  -6  413.04   14.73
   5   7  -8  217.15    8.43
   5   7  -8  212.39    8.51
   5  -7  -8  215.09    8.13
   5  -7  -8  210.93    8.42
   6   8  -3  124.22    5.56
   6   8  -3  131.37    5.23
   6  -8  -3  128.51    5.39
   4   8  -1  326.87   11.78
  -4   8   1  306.49   11.87
   4   8  -1  330.48   12.03
   4   8  -1  334.98   11.60
  -4  -8   1  309.26   11.67
   4  -8  -1  332.34   12.07
   4  -8  -1  326.55   11.84
   2   8   1  227.81    8.20
  -2   8  -1  222.61    8.12
   2   8   1  219.14    8.25
  -2   8  -1  221.48    8.34
  -2   8  -1  223.41    7.82
   2   8   1  211.22    7.72
  -2  -8  -1  224.86    8.20
  -2  -8  -1  215.26    8.19
   2  -8   1  220.14    8.40
   0   8  -3  176.75    6.57
   0  -8   3  177.68    6.55
   0  -8   3  181.44    6.83
   0  -8  -3  177.92    6.74
   0  -8  -3  170.28    6.55
   0  -8   3  175.87    6.37
   2   8  -5  217.63    8.14
   2  -8  -5  225.96    7.80
   2  -8  -5  213.60    7.97
   2  -8  -5  213.14    7.63
   2  -8  -5  201.61    9.12
   4   8  -7  133.85    5.82
   4   8  -7  140.53    5.70
   4  -8  -7  139.38    5.38
   4  -8  -7  140.29    5.18
   4  -8  -7  144.85    5.37
   4  -8  -7  137.86    5.78
   5   9  -2   42.53    2.05
   5   9  -2   37.62    2.36
  -5  -9   2   37.82    1.99
   5  -9  -2   41.47    2.30
  -3   9   0  206.95    7.91
   3   9   0  208.23    7.63
   3   9   0  221.38    8.43
   3   9   0  206.88    7.96
  -3  -9   0  220.93    7.97
   3  -9   0  213.90    8.23
  -1   9  -2  354.27   12.29
  -1   9  -2  354.88   12.45
  -1  -9  -2  335.13   12.45
   1  -9   2  331.76   12.24
  -1  -9  -2  356.04   12.61
   1  -9   2  339.61   12.71
   1  -9   2  346.59   12.33
   1   9  -4   29.40    1.73
  -1  -9   4   39.37    2.01
   1  -9  -4   32.15    1.58
   1  -9  -4   33.51    1.89
   1  -9  -4   31.01    1.75
   3   9  -6  134.99    5.77
   3  -9  -6  138.98    5.77
   3  -9  -6  143.72    5.55
   3  -9  -6  143.78    5.25
   5   9  -8   86.59    4.30
   5   9  -8   91.51    4.20
   5  -9  -8   84.57    4.21
   6  10  -3    3.53    1.07
   6  10  -3    5.56    0.99
   6 -10  -3    6.58    1.25
   4  10  -1   28.33    1.89
   4  10  -1   27.17    1.47
  -4 -10   1   29.17    1.63
  -2  10  -1   49.34    2.00
  -2  10  -1   47.63    2.26
   2 -10   1   44.94    2.50
  -2 -10  -1   48.53    2.37
   0  10  -3   45.60    2.07
   0  10  -3   42.22    2.15
   0 -10   3   38.70    1.98
   0 -10  -3   41.56    2.00
   0 -10   3   40.54    1.86
   0 -10  -3   43.78    2.22
   0 -10  -3   37.80    2.74
   2  10  -5   72.58    3.52
   2 -10  -5   82.51    3.20
   2 -10  -5   80.72    3.53
   2 -10  -5   80.63    3.66
   4  10  -7   63.78    3.42
   4  10  -7   67.55    3.30
   4 -10  -7   67.89    3.45
   5  11  -2    8.77    1.38
   5  11  -2    8.60    1.23
  -5 -11   2    8.64    1.12
   5 -11  -2    7.83    1.21
   3  11   0   35.03    1.58
   3  11   0   36.16    2.19
  -3 -11   0   36.81    2.04
  -1  11  -2   14.34    1.02
   1 -11   2   11.85    1.30
   1 -11   2   12.89    0.94
  -1 -11  -2   13.60    1.28
   1 -11   2   13.10    1.02
   1  11  -4   15.89    1.34
   1 -11  -4   17.83    1.47
   1 -11  -4   16.97    1.12
  -1 -11   4   15.35    0.89
   3  11  -6   27.94    2.03
   3 -11  -6   27.74    2.03
   4  12  -1    4.10    0.92
  -4 -12   1    5.50    1.02
  -2 -12  -1    1.44    0.62
   2 -12   1    1.96    0.61
   0  12  -3   18.10    1.36
   0 -12   3   18.02    1.22
   0 -12  -3   18.57    1.61
   2  12  -5    4.68    0.94
   2 -12  -5    4.47    0.92
   3 -13   0   21.82    1.80
  -3 -13   0   28.45    1.83
  -1  13  -2   24.30    1.58
  -1 -13  -2   23.50    1.84
   1 -13   2   24.41    1.67
   1  13  -4   70.05    3.34
   1 -13  -4   66.23    3.50
  -2 -14  -1  110.14    4.86
   2 -14   1  110.09    4.80
   0  14  -3   56.01    2.93
   0 -14  -3   60.25    3.23
   8   0  -4  260.87   10.13
  -6   0   2  369.74   12.95
   6   0  -2  352.10   13.15
  -4   0   0  107.69    4.24
   4   0   0  115.95    4.35
  -4   0   0  107.95    4.31
   4   0   0  118.98    4.39
   2   0   2  878.21   28.75
  -2   0  -2  781.69   28.82
   2   0  -6  342.84   12.20
   2   0  -6  337.97   11.98
   4   0  -8  542.44   19.53
   4   0  -8  539.00   19.29
   4   0  -8  563.99   19.57
   6   0 -10  171.39    6.98
   6   0 -10  169.85    7.07
   6   0 -10  179.35    6.74
   7   1  -3  280.52   10.59
   7   1  -3  291.03   10.78
   7  -1  -3  286.34   10.80
  -5   1   1  247.14    9.27
  -5   1   1  256.49    8.93
   5   1  -1  258.26    9.16
  -5   1   1  234.01    9.13
   5   1  -1  264.13    9.12
   5   1  -1  243.27    9.09
  -5  -1   1  244.76    9.10
   5  -1  -1  233.75    9.10
  -5  -1   1  237.16    9.23
  -5  -1   1  249.54    9.04
   5  -1  -1  263.04    9.21
  -3   1  -1  451.18   16.01
   3   1   1  451.52   15.82
   3   1   1  434.86   15.83
  -3   1  -1  470.30   15.86
  -3   1  -1  458.51   15.78
  -3  -1  -1  464.47   15.81
   3  -1   1  454.77   15.99
   3  -1   1  443.38   15.87
  -3  -1  -1  401.84   16.15
  -3  -1  -1  480.40   15.86
  -3  -1  -1  458.04   15.88
   3  -1   1  441.27   15.83
   1   1  -5  651.00   22.75
   3   1  -7  261.77    9.43
   3   1  -7  265.77    9.75
   3  -1  -7  257.59    9.68
   3  -1  -7  273.75    9.68
   3  -1  -7  268.20    9.57
   5   1  -9  254.67    9.56
   5   1  -9  255.33    9.57
   5   1  -9  248.56    9.15
   5  -1  -9  254.04    9.53
   5  -1  -9  248.71    9.30
   5  -1  -9  243.64    9.50
   8   2  -4  150.93    6.42
   8   2  -4  154.59    6.34
   8  -2  -4  157.38    6.54
  -6   2   2  294.91    9.59
  -6   2   2  285.36   10.09
   6   2  -2  245.13    9.81
   6   2  -2  239.05    9.94
   6  -2  -2  251.16    9.93
  -6  -2   2  282.89   10.09
   4   2   0  157.42    5.72
   4   2   0  155.85    5.69
  -4   2   0  148.95    5.71
  -4   2   0  148.45    5.49
  -4  -2   0  148.79    5.84
   4  -2   0  154.06    5.71
   4  -2   0  154.05    5.86
   4  -2   0  156.34    5.78
  -4  -2   0  145.32    5.68
  -4  -2   0  150.06    5.65
   2   2   2  807.89   27.21
  -2   2  -2  786.84   27.19
  -2   2  -2  714.39   27.25
   2  -2   2  835.92   27.23
  -2  -2  -2  769.66   27.20
   0   2   4  266.14    9.03
   0   2  -4  238.21    9.01
   0   2  -4  240.63    8.99
   0  -2   4  264.65    8.98
   0  -2  -4  245.15    9.00
   0  -2   4  257.90    8.81
   2   2  -6  203.88    7.39
   2   2  -6  208.84    7.76
   2  -2  -6  213.43    7.61
  -2  -2   6  214.60    7.44
   2  -2  -6  210.06    7.70
   2  -2  -6  209.22    7.64
   4   2  -8  302.00   11.48
   4   2  -8  296.38   10.93
   4   2  -8  315.09   11.40
   4  -2  -8  315.15   11.26
   4  -2  -8  307.87   11.28
   4  -2  -8  314.49   11.23
   6   2 -10  188.30    7.71
   6   2 -10  189.71    7.77
   6  -2 -10  199.02    7.55
   6  -2 -10  191.00    7.70
   6  -2 -10  190.20    7.49
   7   3  -3   79.50    3.63
   7   3  -3   75.52    3.58
   7  -3  -3   79.58    3.70
  -5   3   1  363.33   13.48
   5   3  -1  347.86   13.31
  -5   3   1  378.10   12.99
   5   3  -1  384.67   13.35
   5   3  -1  372.20   13.41
  -5  -3   1  362.99   13.36
   5  -3  -1  384.80   13.45
   5  -3  -1  374.15   13.52
  -5  -3   1  376.68   13.55
  -5  -3   1  367.14   13.28
   3   3   1  288.34   10.44
   3   3   1  293.92   10.58
  -3   3  -1  296.29   10.57
  -3  -3  -1  292.13   10.57
  -3  -3  -1  299.49   10.42
  -3  -3  -1  293.31   10.59
   3  -3   1  301.72   10.61
   1   3   3  280.53    9.81
  -1   3  -3  265.05    9.84
  -1   3  -3  272.19    9.80
  -1  -3  -3  264.59    9.52
  -1  -3  -3  266.35    9.79
   1  -3   3  284.52    9.84
   1  -3   3  282.73    9.60
   1   3  -5  182.51    6.54
   1   3  -5  179.57    6.61
  -1  -3   5  170.16    6.46
   1  -3  -5  181.17    6.57
   3   3  -7  139.65    5.50
   3  -3  -7  139.83    5.35
   3  -3  -7  141.34    5.31
   3  -3  -7  137.60    5.36
   5   3  -9  111.29    4.83
   5   3  -9  109.03    4.81
   5   3  -9  107.44    4.21
   5  -3  -9  112.60    4.58
   5  -3  -9  111.83    4.69
   5  -3  -9  115.74    4.69
   8   4  -4   25.16    2.04
   8   4  -4   22.58    2.01
   8  -4  -4   26.04    2.13
   6   4  -2   73.51    3.44
  -6   4   2   76.67    3.42
   6   4  -2   71.70    3.35
  -6   4   2   79.35    2.84
  -6  -4   2   79.45    3.57
   6  -4  -2   75.04    3.46
   6  -4  -2   77.86    3.51
   4   4   0  126.00    5.11
  -4   4   0  125.98    5.04
  -4   4   0  136.92    4.67
   4   4   0  128.45    4.94
   4   4   0  128.83    5.06
  -4  -4   0  136.82    5.07
   4  -4   0  130.29    5.21
  -4  -4   0  127.66    5.09
   4  -4   0  136.34    5.14
  -4  -4   0  135.17    4.93
  -2   4  -2  233.08    8.21
   2   4   2  229.03    8.24
  -2   4  -2  222.28    7.99
   2   4   2  203.35    8.00
  -2   4  -2  224.29    8.32
   2  -4   2  234.27    8.32
  -2  -4  -2  238.21    8.25
  -2  -4  -2  226.10    8.22
  -2  -4  -2  222.49    7.91
   0   4  -4  121.69    4.68
   0   4  -4  128.67    4.64
   0   4   4  119.81    4.67
   0  -4  -4  125.44    4.69
   0  -4   4  119.27    4.31
   0  -4   4  121.13    4.65
   2   4  -6   37.41    1.98
   2  -4  -6   39.75    1.95
  -2  -4   6   45.36    2.04
   2  -4  -6   40.43    1.77
  -2  -4   6   47.02    1.91
   4   4  -8   26.32    1.71
   4   4  -8   25.24    1.09
   4   4  -8   25.02    1.64
   4  -4  -8   27.06    1.52
   4  -4  -8   25.87    1.48
   6   4 -10   25.98    2.18
   6   4 -10   24.96    2.16
   6  -4 -10   29.75    2.14
   6  -4 -10   29.26    2.10
   7   5  -3   10.19    1.37
   7   5  -3   11.65    1.29
   7  -5  -3   10.05    1.41
   5   5  -1   22.98    1.33
   5   5  -1   23.20    1.49
  -5   5   1   18.54    1.34
   5   5  -1   26.74    2.26
  -5  -5   1   20.88    1.30
   5  -5  -1   22.86    1.49
   5  -5  -1   22.76    1.49
  -3   5  -1   42.76    1.84
   3   5   1   35.03    1.80
   3   5   1   32.36    1.56
  -3  -5  -1   40.56    1.59
   3  -5   1   36.85    1.89
   3  -5   1   36.76    1.82
  -3  -5  -1   39.95    1.81
   1   5   3   28.08    1.43
  -1   5  -3   25.96    1.44
  -1   5  -3   26.83    1.41
  -1   5  -3   26.60    1.27
  -1  -5  -3   27.11    1.38
  -1  -5  -3   27.28    1.42
   1  -5   3   30.31    1.48
   1   5  -5  165.44    6.07
   1  -5  -5  160.72    6.07
  -1  -5   5  154.91    6.01
   3   5  -7   63.28    3.16
   3  -5  -7   63.70    2.86
   3  -5  -7   60.39    2.67
   3  -5  -7   63.74    2.64
   5   5  -9    7.57    1.32
   5   5  -9    8.26    1.30
   5  -5  -9    9.30    1.18
   5  -5  -9    9.88    1.02
   5  -5  -9    9.21    1.23
   6   6  -2   14.53    1.25
   6   6  -2   14.02    1.35
   6  -6  -2   13.58    1.37
  -4   6   0   29.12    1.82
   4   6   0   31.15    1.46
   4   6   0   29.66    1.72
   4   6   0   29.91    1.66
  -4   6   0   31.02    1.70
  -4  -6   0   30.56    1.59
   4  -6   0   29.65    1.74
   4  -6   0   28.07    1.63
  -2   6  -2   76.92    2.83
   2   6   2   70.44    2.77
  -2   6  -2   74.47    3.07
   2   6   2   74.67    3.12
  -2  -6  -2   75.08    3.11
   2  -6   2   76.76    3.21
  -2  -6  -2   71.11    3.10
   0   6   4   11.82    0.92
   0   6  -4   11.17    0.82
   0   6  -4   12.18    0.94
   0  -6   4   11.15    0.55
   0  -6   4   12.72    1.01
   0  -6  -4   13.98    0.88
   0  -6  -4   13.16    0.93
   2   6  -6   36.77    1.90
   2  -6  -6   33.22    1.54
   2  -6  -6   32.54    1.47
   2  -6  -6   36.07    1.84
   4   6  -8   10.91    1.27
   4  -6  -8   10.21    0.94
   4  -6  -8   10.55    1.15
   4  -6  -8   10.21    0.96
   7   7  -3   60.52    3.01
   7   7  -3   58.06    3.23
   7  -7  -3   57.05    3.17
   5   7  -1    6.73    0.99
   5   7  -1    7.76    0.82
   5  -7  -1    7.09    1.02
   5  -7  -1    7.34    0.98
  -3   7  -1   33.91    1.87
   3   7   1   41.28    1.64
  -3   7  -1   36.01    2.05
   3   7   1   40.21    1.99
  -3  -7  -1   34.80    1.87
   3  -7   1   43.77    2.15
   3  -7   1   42.40    1.99
   1   7   3   95.25    4.09
  -1   7  -3  100.39    4.21
  -1   7  -3  101.85    4.10
  -1   7  -3   98.80    3.89
   1  -7   3  114.18    4.37
  -1  -7  -3   99.90    4.02
  -1  -7  -3  100.45    4.13
   1   7  -5   30.94    1.67
   1  -7  -5   29.91    1.54
  -1  -7   5   32.49    1.69
   1  -7  -5   28.74    1.68
  -1  -7   5   35.10    1.78
   3   7  -7   29.62    1.78
   3  -7  -7   26.11    1.70
   3  -7  -7   25.70    1.35
   3  -7  -7   25.06    1.32
   5   7  -9   86.94    4.22
   5   7  -9   85.99    4.12
   5  -7  -9   85.34    4.11
   5  -7  -9   88.84    3.84
   6   8  -2   88.85    4.23
   6   8  -2   91.37    3.88
   6  -8  -2   88.39    4.09
   4   8   0   41.68    1.85
  -4   8   0   38.40    2.11
   4   8   0   41.37    2.24
   4  -8   0   40.10    2.15
   4  -8   0   40.54    2.29
  -4  -8   0   42.23    2.06
   2   8   2  143.90    5.63
  -2   8  -2  144.62    5.77
  -2   8  -2  140.68    5.55
  -2   8  -2  144.89    5.26
   2  -8   2  147.43    5.78
  -2  -8  -2  134.38    5.85
  -2  -8  -2  150.11    5.66
   0   8  -4  190.31    6.96
   0  -8  -4  191.04    6.94
   0  -8   4  179.91    6.91
   0  -8   4  180.95    7.15
   0  -8  -4  197.10    7.16
   0  -8   4  175.58    6.60
   2   8  -6  109.00    4.45
   2  -8  -6  107.50    4.12
   2  -8  -6  104.28    4.44
   2  -8  -6  105.03    3.86
   2  -8  -6   98.23    4.14
   4   8  -8  118.65    5.30
   4  -8  -8  121.67    4.74
   4  -8  -8  124.79    4.81
   4  -8  -8  123.21    4.66
   4  -8  -8  120.86    5.26
   5   9  -1  104.19    4.65
   5   9  -1  106.64    4.18
   5  -9  -1  102.18    4.50
  -5  -9   1  100.89    4.29
  -3   9  -1   95.96    4.14
   3   9   1   84.68    3.40
   3  -9   1   91.44    4.10
  -3  -9  -1   96.29    3.92
  -1   9  -3  233.75    9.05
  -1   9  -3  253.19    8.88
  -1  -9  -3  242.11    9.07
   1  -9   3  225.42    9.21
  -1  -9  -3  264.38    9.25
   1   9  -5  177.66    6.50
   1  -9  -5  141.16    7.11
   1  -9  -5  174.41    6.62
   1  -9  -5  171.38    6.27
   3   9  -7  183.88    7.32
   3  -9  -7  179.95    7.29
   3  -9  -7  184.16    6.67
   3  -9  -7  181.41    6.93
   6  10  -2  148.13    6.67
   6  10  -2  160.52    6.18
   6 -10  -2  156.74    6.51
   4  10   0  183.59    6.93
   4  10   0  192.12    7.61
  -4 -10   0  194.45    7.31
  -2  10  -2  378.65   13.38
   0  10  -4  249.58    8.98
   0 -10  -4  244.78    9.19
   0 -10   4  239.76    8.60
   0 -10  -4  229.36    8.90
   2  10  -6  185.17    7.38
   2 -10  -6  193.24    7.49
   2 -10  -6  183.05    7.22
   4  10  -8   86.11    4.23
   4 -10  -8   86.88    4.23
   5  11  -1  217.85    8.90
  -5 -11   1  224.94    8.44
  -3 -11  -1  252.40    9.54
  -1  11  -3  142.12    5.88
   1 -11   3  159.71    6.46
  -1 -11  -3  145.84    6.23
   1 -11   3  171.16    5.93
   1  11  -5  242.44    9.16
   1 -11  -5  239.47    9.31
   3  11  -7  195.28    7.90
   3 -11  -7  195.93    7.95
  -4 -12   0  223.81    8.56
   2 -12   2  187.19    7.11
  -2 -12  -2  181.99    7.31
   0  12  -4  234.98    8.88
   0 -12  -4  234.92    9.18
   2  12  -6  201.20    8.04
   2 -12  -6  202.28    8.16
   3 -13   1  207.27    8.32
  -3 -13  -1  221.32    8.40
  -1  13  -3  106.53    4.41
  -1 -13  -3  106.45    4.79
   1  13  -5  202.79    7.99
   1 -13  -5  201.73    8.20
   8   0  -3    0.74    0.78
   6   0  -1    0.22    0.45
  -6   0   1   -0.42    0.48
  -6   0   1   -0.24    0.37
  -4   0  -1    0.22    0.23
   4   0   1    0.07    0.25
  -4   0  -1    0.44    0.27
   4   0   1    0.01    0.22
  -4   0  -1   -0.01    0.32
  -2   0  -3    0.63    0.21
   2   0   3    0.12    0.19
  -2   0  -3    0.36    0.21
  -2   0  -3    0.11    0.21
   2   0   3    0.34    0.25
   0   0  -5    0.45    0.22
   0   0   5    0.13    0.18
   0   0   5    0.35    0.20
   0   0  -5    0.22    0.16
   2   0  -7    0.53    0.31
   2   0  -7    0.30    0.20
   4   0  -9    0.20    0.47
   4   0  -9    0.55    0.51
   4   0  -9   -0.45    0.31
   6   0 -11   -1.04    0.85
   6   0 -11   -0.58    0.82
   7   1  -2    6.51    1.11
   7  -1  -2    7.39    1.13
  -5   1   0   20.43    1.56
  -5   1   0   19.33    1.11
   5   1   0   20.07    1.25
  -5  -1   0   20.11    1.26
  -5  -1   0   20.44    1.21
   5  -1   0   18.66    1.24
   3   1   2  307.35   11.05
  -3   1  -2  315.37   11.05
  -3   1  -2  296.02   11.19
   3   1   2  311.83   11.01
  -3  -1  -2  311.65   11.08
  -3  -1  -2  315.00   11.05
   3  -1   2  314.78   11.07
  -3  -1  -2  319.52   10.99
  -3  -1  -2  289.71   11.13
  -1   1  -4   38.02    1.59
  -1   1  -4   38.33    1.71
   1   1   4   37.78    1.67
  -1   1  -4   37.10    1.70
  -1  -1  -4   38.89    1.67
   1  -1   4   37.14    1.67
  -1  -1  -4   36.95    1.64
   1   1  -6   87.29    3.52
   1   1  -6   88.56    3.26
   1   1  -6   83.45    3.27
  -1  -1   6   97.49    3.23
   1  -1  -6   82.42    3.35
   1  -1  -6   81.64    3.17
   3   1  -8    7.62    0.61
   3   1  -8    8.59    0.92
   3  -1  -8    6.91    0.77
   3  -1  -8    6.04    0.65
   3  -1  -8    6.76    0.80
   5   1 -10   13.17    1.48
   5   1 -10   13.84    1.08
   5   1 -10   13.61    1.47
   5  -1 -10   12.81    1.38
   5  -1 -10   13.63    1.25
   5  -1 -10   12.36    1.39
   8   2  -3   90.68    4.18
   8  -2  -3   85.65    4.21
  -6   2   1   35.07    1.67
   6   2  -1   35.91    2.59
  -6   2   1   31.96    1.94
   6  -2  -1   39.36    2.04
  -4   2  -1  167.48    6.20
   4   2   1  166.57    6.40
  -4   2  -1  168.43    6.39
   4   2   1  178.70    6.37
   4  -2   1  174.22    6.59
  -4  -2  -1  168.49    6.39
  -4  -2  -1  169.57    6.57
   4  -2   1  164.99    6.37
  -4  -2  -1  174.39    6.43
  -4  -2  -1  174.06    6.33
   4  -2   1  173.35    6.46
  -2   2  -3  151.73    5.65
   2   2   3  151.46    5.66
  -2   2  -3  151.55    5.75
   2   2   3  149.02    5.51
  -2  -2  -3  159.64    5.69
   2  -2   3  140.90    5.52
  -2  -2  -3  161.36    5.69
   2  -2   3  148.70    5.71
   0   2  -5  121.53    4.58
   0   2   5  122.53    4.59
   0   2  -5  116.84    4.61
   0   2  -5  117.75    4.43
   0  -2  -5  124.33    4.45
   0  -2  -5  121.82    4.59
   0  -2   5  117.87    4.37
   0  -2   5  125.45    4.54
   2   2  -7  170.20    6.04
   2   2  -7  166.59    6.45
   2  -2  -7  156.91    6.35
   2  -2  -7  163.51    6.28
  -2  -2   7  186.59    6.06
   4   2  -9   77.23    3.56
   4   2  -9   80.53    3.57
   4   2  -9   79.07    3.07
   4  -2  -9   77.81    3.35
   4  -2  -9   74.36    3.43
   4  -2  -9   76.44    3.45
   7   3  -2   65.65    3.17
   7  -3  -2   65.01    3.25
  -5   3   0  135.77    4.67
   5   3   0  121.90    4.91
  -5  -3   0  129.64    5.02
  -5  -3   0  128.00    4.90
   5  -3   0  124.94    5.06
   5  -3   0  115.58    5.09
  -3   3  -2  439.51   15.25
   3   3   2  435.54   15.26
   3   3   2  436.53   15.08
  -3   3  -2  399.03   15.35
  -3  -3  -2  425.49   15.05
   3  -3   2  453.05   15.31
  -3  -3  -2  438.67   15.28
   3  -3   2  432.73   15.17
  -3  -3  -2  421.42   15.32
  -3  -3  -2  415.82   15.24
  -1   3  -4  286.73   10.16
  -1   3  -4  274.40   10.16
   1   3   4  279.47   10.12
   1  -3   4  287.36    9.89
  -1  -3  -4  283.17   10.13
  -1  -3  -4  282.08    9.86
   1  -3   4  274.49   10.11
   1   3  -6  176.45    6.53
   1   3  -6  184.27    7.00
   1   3  -6  182.70    6.88
  -1  -3   6  204.65    6.84
   1  -3  -6  184.73    6.92
   1  -3  -6  190.01    6.63
   3   3  -8  319.31   11.90
   3  -3  -8  324.99   11.53
   3  -3  -8  314.59   11.61
   3  -3  -8  316.18   11.59
   5   3 -10   54.99    3.00
   5   3 -10   56.20    2.98
   5  -3 -10   53.30    2.75
   5  -3 -10   52.11    2.79
   5  -3 -10   53.24    2.73
   8   4  -3  155.69    6.44
   8  -4  -3  151.54    6.56
  -6   4   1  141.41    6.11
  -6   4   1  150.09    5.50
   6  -4  -1  164.51    6.28
   6  -4  -1  163.87    6.21
  -6  -4   1  145.63    6.27
   4   4   1  473.49   16.22
  -4   4  -1  449.48   16.01
   4   4   1  470.53   16.40
  -4   4  -1  430.64   16.33
  -4  -4  -1  447.12   16.36
   4  -4   1  500.82   16.62
  -4  -4  -1  441.97   16.16
   4  -4   1  487.68   16.46
  -4  -4  -1  434.26   16.38
   4  -4   1  463.36   16.33
   2   4   3  234.59    8.76
  -2   4  -3  251.80    9.20
   2   4   3  230.84    9.07
   2  -4   3  236.11    8.87
  -2  -4  -3  271.51    9.13
  -2  -4  -3  258.51    9.12
  -2  -4  -3  262.35    8.76
   0   4  -5  150.10    5.52
   0   4  -5  151.90    5.56
   0   4   5  140.41    5.52
   0  -4   5  136.99    5.46
   0  -4   5  142.95    5.13
   0  -4  -5  149.68    5.55
   2   4  -7  466.30   16.60
   2  -4  -7  471.26   16.28
   2  -4  -7  449.92   16.48
   4   4  -9  321.69   12.12
   4   4  -9  325.62   12.03
   4  -4  -9  320.62   11.90
   4  -4  -9  325.39   11.81
   4  -4  -9  321.14   11.82
   7   5  -2  215.23    8.62
   7   5  -2  221.87    8.47
   7  -5  -2  220.94    8.66
  -5   5   0  222.50    8.76
   5   5   0  241.31    8.49
  -5  -5   0  219.45    8.40
   5  -5   0  234.09    8.82
  -5  -5   0  231.23    8.59
  -3   5  -2  513.86   18.08
   3   5   2  532.69   18.47
  -3   5  -2  523.65   18.41
  -3   5  -2  499.60   18.57
   3   5   2  519.91   18.12
   3  -5   2  520.94   18.44
  -3  -5  -2  514.54   18.42
  -3  -5  -2  517.66   18.09
  -3  -5  -2  536.09   18.47
  -1   5  -4  279.28    9.87
  -1   5  -4  272.20   10.07
  -1   5  -4  283.25   10.06
   1  -5   4  267.96   10.03
  -1  -5  -4  280.87   10.04
   1  -5   4  266.24    9.66
   1   5  -6  255.35    9.26
   1  -5  -6  254.04    9.25
  -1  -5   6  243.05    9.15
   1  -5  -6  250.33    8.83
   3   5  -8  403.30   14.35
   3  -5  -8  392.19   14.05
   3  -5  -8  370.09   14.37
   3  -5  -8  396.50   13.93
   5   5 -10  158.82    6.56
   5   5 -10  158.26    6.63
   5  -5 -10  155.08    6.27
   5  -5 -10  157.76    6.43
   5  -5 -10  151.11    6.54
   6   6  -1  166.22    6.69
   6   6  -1  164.87    6.45
  -6  -6   1  163.44    6.78
   6  -6  -1  162.68    6.61
  -4   6  -1  381.84   14.25
   4   6   1  376.99   13.74
   4  -6   1  378.25   14.24
   4  -6   1  395.86   14.11
  -4  -6  -1  412.02   14.06
  -2   6  -3  498.67   17.70
  -2   6  -3  483.23   17.42
   2   6   3  502.15   17.75
  -2   6  -3  476.89   17.80
   2  -6   3  508.44   17.83
  -2  -6  -3  505.15   17.76
  -2  -6  -3  513.01   17.72
   0   6  -5  438.94   15.66
   0   6   5  425.82   15.76
   0   6  -5  460.24   15.86
   0  -6   5  427.95   15.18
   0  -6   5  441.42   15.75
   0  -6  -5  446.00   15.78
   2   6  -7  301.78   11.65
   2  -6  -7  284.21   10.38
   2  -6  -7  283.78   10.37
   2  -6  -7  301.96   10.85
   4   6  -9  198.97    8.03
   4  -6  -9  204.21    7.62
   4  -6  -9  201.41    7.63
   4  -6  -9  201.82    7.91
   7   7  -2  243.13    9.81
   7   7  -2  255.63    9.51
   7  -7  -2  249.18    9.75
  -5   7   0  185.95    7.43
   5   7   0  196.33    7.09
   5  -7   0  196.81    7.45
  -5  -7   0  182.61    7.64
   5  -7   0  185.69    7.57
  -3   7  -2  237.41    8.71
   3   7   2  262.61    8.74
  -3   7  -2  231.33    9.28
   3  -7   2  263.74    9.41
  -3  -7  -2  239.50    9.16
  -1   7  -4  351.77   13.21
   1   7   4  361.90   13.75
  -1   7  -4  359.44   13.31
  -1   7  -4  367.88   12.99
  -1  -7  -4  374.17   13.26
   1  -7   4  370.41   12.78
   1  -7   4  369.16   13.32
  -1  -7  -4  362.11   13.15
   1   7  -6  349.05   12.85
   1  -7  -6  357.80   12.92
   3   7  -8  161.78    6.61
   3  -7  -8  165.58    6.09
   3  -7  -8  163.88    6.57
   3  -7  -8  163.07    5.98
   5  -7 -10  114.85    5.25
   5  -7 -10  120.19    4.93
   6   8  -1   97.10    4.08
  -6  -8   1   95.64    4.15
   6  -8  -1   97.06    4.41
  -4   8  -1  273.72   10.53
   4   8   1  280.43    9.95
   4  -8   1  268.27   10.37
   4  -8   1  286.92   10.63
  -4  -8  -1  282.23   10.40
  -2   8  -3  221.23    7.85
  -2   8  -3  207.47    8.31
  -2  -8  -3  220.07    8.22
   2  -8   3  217.66    8.32
   0   8  -5  308.37   10.90
   0  -8  -5  285.65   10.83
   0  -8  -5  298.40   11.06
   0  -8   5  298.07   10.33
   2   8  -7  100.32    4.33
   2  -8  -7   99.52    4.33
   2  -8  -7   99.69    3.69
   2  -8  -7   99.17    3.97
   4   8  -9  126.51    5.62
   4  -8  -9  126.17    5.78
   4  -8  -9  131.41    5.58
   5   9   0  108.63    4.37
   5  -9   0  106.71    4.78
  -5  -9   0  118.12    4.69
  -3   9  -2   33.16    1.48
  -3   9  -2   31.97    2.08
   3  -9   2   37.98    2.15
  -3  -9  -2   35.36    2.10
  -1   9  -4  203.63    7.79
  -1   9  -4  197.11    7.31
  -1  -9  -4  204.01    7.66
   1  -9   4  181.82    7.64
   1   9  -6  151.83    6.00
   1  -9  -6  145.41    5.82
   1  -9  -6  151.88    6.10
   1  -9  -6  153.22    5.92
   3   9  -8   23.77    1.90
   3  -9  -8   27.95    1.99
   3  -9  -8   29.40    1.56
   6 -10  -1   52.24    3.02
  -6 -10   1   49.11    2.67
   4  10   1   14.74    1.22
  -4 -10  -1   18.90    1.41
  -2  10  -3   21.95    1.72
  -2  10  -3   22.36    1.31
   2 -10   3   27.25    1.76
  -2 -10  -3   23.96    1.66
   0  10  -5   59.50    2.74
   0 -10  -5   56.09    2.90
   2  10  -7   46.16    2.61
   2 -10  -7   45.45    2.63
  -5 -11   0    5.88    1.14
  -3 -11  -2    2.43    0.69
  -1  11  -4   21.22    1.41
  -1 -11  -4   23.35    1.71
   1 -11   4   21.11    1.30
   1  11  -6   24.55    1.76
   1 -11  -6   26.66    1.92
   3  11  -8   -0.26    0.80
  -4 -12  -1    4.97    0.96
  -2 -12  -3    3.37    0.84
   2 -12   3    4.32    0.84
   0  12  -5    2.70    0.73
   0 -12  -5    3.22    0.91
   2  12  -7   16.02    1.71
   2 -12  -7   13.46    1.79
   3 -13   2   20.80    1.75
  -3 -13  -2   21.55    1.83
  -1 -13  -4    6.59    1.18
   8   0  -2  106.45    4.85
  -6   0   0  428.52   16.29
   6   0   0  458.40   16.06
  -6   0   0  444.23   15.83
  -4   0  -2  511.77   18.30
   4   0   2  512.11   18.10
  -4   0  -2  527.89   18.05
   4   0   2  477.91   18.05
  -4   0  -2  526.97   18.06
   2   0   4  291.18   10.27
  -2   0  -4  274.26   10.17
   2   0   4  292.86   10.18
  -2   0  -4  280.37   10.17
  -2   0  -4  280.31   10.28
   0   0  -6  305.97   11.19
   0   0   6  335.49   11.23
   0   0  -6  304.69   11.18
   2   0  -8  394.62   14.18
   2   0  -8  407.75   14.51
   4   0 -10  172.65    6.95
   4   0 -10  173.88    6.90
   4   0 -10  175.07    6.56
   7   1  -1  141.14    5.88
   7  -1  -1  146.17    5.95
  -5   1  -1  467.09   17.29
   5   1   1  483.09   17.07
  -5   1  -1  485.17   16.91
  -5  -1  -1  460.14   17.06
  -5  -1  -1  480.40   17.01
   5  -1   1  495.00   17.15
   3   1   3  291.74   10.47
   3   1   3  291.54   10.41
  -3   1  -3  299.77   10.46
  -3  -1  -3  301.55   10.39
   3  -1   3  273.67   10.38
  -3  -1  -3  288.32   10.48
   3  -1   3  284.38   10.58
   3  -1   3  288.79   10.48
  -1   1  -5  439.22   15.48
  -1   1  -5  436.25   15.62
  -1   1  -5  438.98   15.61
   1   1   5  452.10   15.58
   1  -1   5  458.01   15.58
  -1  -1  -5  443.14   15.53
  -1  -1  -5  426.51   15.54
   1  -1   5  445.52   15.48
  -1  -1  -5  429.59   15.56
   1   1  -7  469.01   16.53
   1   1  -7  465.08   16.19
   1   1  -7  456.11   16.22
   1  -1  -7  458.39   16.11
   1  -1  -7  468.22   16.33
  -1  -1   7  459.96   16.10
   3   1  -9  201.82    7.34
   3   1  -9  203.10    7.82
   3  -1  -9  203.89    7.66
   3  -1  -9  199.40    7.75
   3  -1  -9  201.01    7.50
   5   1 -11  139.78    6.01
   5   1 -11  139.03    6.00
   5  -1 -11  138.79    5.95
   5  -1 -11  145.78    5.66
   5  -1 -11  141.64    5.95
   8   2  -2  108.30    4.86
   8  -2  -2  106.94    4.93
   6   2   0  147.11    5.97
  -6   2   0  159.83    5.69
   6  -2   0  156.63    6.07
  -6  -2   0  137.59    6.12
  -4   2  -2  286.62   10.68
   4   2   2  276.99   10.68
   4   2   2  289.47   10.62
  -4   2  -2  285.72   10.89
  -4   2  -2  301.11   10.54
   4  -2   2  303.21   10.91
   4  -2   2  294.15   10.74
  -4  -2  -2  339.66   11.14
  -4  -2  -2  291.96   10.75
  -4  -2  -2  286.56   10.67
   4  -2   2  295.22   10.66
  -4  -2  -2  284.95   10.55
  -2   2  -4  230.58    8.67
   2   2   4  243.25    8.69
  -2   2  -4  233.40    8.56
  -2   2  -4  229.24    8.75
  -2  -2  -4  241.36    8.69
   2  -2   4  236.04    8.53
   2  -2   4  249.71    8.75
  -2  -2  -4  237.27    8.51
  -2  -2  -4  240.29    8.71
   0   2   6  677.73   22.44
   0   2  -6  615.61   22.46
   0   2  -6  622.54   22.39
   0   2  -6  610.71   22.16
   0  -2   6  659.13   22.33
   0  -2  -6  605.39   22.22
   0  -2   6  677.15   22.20
   0  -2  -6  646.03   22.41
   2   2  -8  474.73   16.82
   2   2  -8  435.07   16.27
   2  -2  -8  468.91   16.59
   2  -2  -8  491.22   16.77
   4   2 -10   81.40    3.94
   4   2 -10   86.53    3.38
   4   2 -10   87.04    3.95
   4  -2 -10   85.72    3.82
   4  -2 -10   89.84    3.73
   4  -2 -10   85.64    3.89
   7   3  -1  112.70    4.82
   7  -3  -1  113.23    4.95
  -5   3  -1  234.29    9.11
  -5   3  -1  252.30    8.59
   5   3   1  238.79    8.78
  -5  -3  -1  244.54    9.13
   5  -3   1  226.48    9.39
  -5  -3  -1  241.76    8.91
   5  -3   1  242.03    8.97
  -5  -3  -1  225.48    8.72
   3   3   3  176.34    6.60
  -3   3  -3  166.08    6.69
  -3   3  -3  173.20    6.57
   3   3   3  178.62    6.40
   3  -3   3  177.97    6.46
   3  -3   3  176.29    6.60
  -3  -3  -3  177.71    6.36
   3  -3   3  181.48    6.71
  -3  -3  -3  172.95    6.64
  -3  -3  -3  171.30    6.58
  -3  -3  -3  170.11    6.58
   1   3   5  203.54    7.75
  -1   3  -5  209.03    7.82
  -1   3  -5  209.11    7.82
  -1  -3  -5  214.89    7.78
   1  -3   5  210.91    7.52
  -1  -3  -5  214.01    7.68
  -1  -3  -5  210.47    7.53
   1  -3   5  210.74    7.76
   1   3  -7  108.30    4.30
   1   3  -7   99.69    3.76
   1   3  -7  107.98    4.13
   1  -3  -7  107.98    4.18
  -1  -3   7   95.93    3.99
   1  -3  -7  108.76    3.86
   3   3  -9  101.57    3.92
   3   3  -9  100.83    4.54
   3  -3  -9  108.32    4.46
   3  -3  -9  107.83    4.36
   3  -3  -9  111.39    4.33
   5   3 -11   75.49    3.83
   5   3 -11   66.68    3.66
   5  -3 -11   76.15    3.53
   5  -3 -11   74.22    3.58
   5  -3 -11   74.29    3.59
   8   4  -2   28.76    2.13
   8  -4  -2   26.88    2.28
  -6   4   0   62.48    2.43
   6  -4   0   62.77    3.03
  -6  -4   0   54.73    3.08
   6  -4   0   61.87    3.09
   4   4   2   93.97    3.65
  -4   4  -2   90.87    4.00
  -4  -4  -2   94.19    3.96
   4  -4   2   94.06    3.90
  -4  -4  -2   96.39    3.61
   4  -4   2   87.25    3.94
   4  -4   2   87.61    3.73
  -4  -4  -2   94.56    3.86
   2   4   4  125.41    5.00
  -2   4  -4  126.82    5.01
   2  -4   4  127.10    5.07
  -2  -4  -4  135.75    5.05
  -2  -4  -4  131.07    4.66
   2  -4   4  123.68    4.76
   0   4  -6   85.47    3.44
   0   4   6   79.36    3.41
   0   4  -6   84.30    3.44
   0  -4   6   77.94    3.34
   0  -4  -6   86.31    3.44
   0  -4   6   79.49    3.00
   2  -4  -8  109.99    4.52
   2  -4  -8  112.94    4.31
   4   4 -10   27.84    2.08
   4  -4 -10   29.97    1.94
   4  -4 -10   29.54    1.90
   4  -4 -10   29.49    1.82
   7   5  -1   14.86    1.44
   7  -5  -1   14.32    1.65
  -5   5  -1    7.05    0.56
  -5   5  -1    6.58    1.11
   5   5   1    9.83    0.85
  -5  -5  -1    6.93    0.96
   5  -5   1    8.90    1.04
  -5  -5  -1    7.50    0.80
   5  -5   1    8.31    1.06
   3   5   3   46.05    2.25
  -3   5  -3   45.67    2.34
  -3   5  -3   39.42    2.17
  -3   5  -3   43.83    1.95
   3   5   3   47.76    1.92
  -3  -5  -3   48.62    2.38
   3  -5   3   48.31    2.07
  -3  -5  -3   45.21    1.86
  -3  -5  -3   46.90    2.23
   3  -5   3   46.78    2.33
  -1   5  -5   25.33    1.58
  -1   5  -5   25.99    1.41
  -1   5  -5   26.38    1.53
   1   5   5   26.81    1.54
  -1  -5  -5   26.82    1.51
   1  -5   5   26.59    1.50
  -1  -5  -5   27.41    1.08
   1   5  -7    4.25    0.72
   1   5  -7    4.03    0.62
   1  -5  -7    3.31    0.64
   1  -5  -7    2.75    0.41
   3   5  -9    9.04    1.13
   3  -5  -9    8.81    1.08
   3  -5  -9    9.50    1.13
   3  -5  -9    9.23    0.89
   5   5 -11   47.90    3.23
   5  -5 -11   51.64    2.83
   5  -5 -11   51.31    2.80
   6  -6   0   18.83    1.62
  -6  -6   0   19.70    1.45
  -6  -6   0   17.10    1.68
   4   6   2   57.72    2.39
  -4   6  -2   58.30    2.26
  -4   6  -2   53.17    2.81
   4  -6   2   53.43    2.80
   4  -6   2   54.07    2.72
  -4  -6  -2   60.21    2.71
  -4  -6  -2   59.78    2.34
  -2   6  -4    1.78    0.40
  -2   6  -4    3.32    0.51
   2  -6   4    2.35    0.45
  -2  -6  -4    3.70    0.66
  -2  -6  -4    2.86    0.64
   2  -6   4    2.82    0.59
   0   6  -6    6.86    0.78
   0   6  -6    7.06    0.86
   0  -6   6    6.96    0.93
   0  -6  -6    6.17    0.77
   2   6  -8    0.17    0.39
   2  -6  -8    0.29    0.30
   2  -6  -8    0.53    0.44
   2  -6  -8    0.24    0.29
   4   6 -10    6.44    1.14
   4  -6 -10    6.79    1.10
   4  -6 -10    7.35    1.22
   4  -6 -10    8.20    1.32
   7   7  -1   20.19    1.69
   7  -7  -1   19.62    1.91
  -5   7  -1   42.26    2.65
   5   7   1   50.05    2.25
   5  -7   1   57.10    3.45
  -5  -7  -1   47.84    2.49
   5  -7   1   51.55    2.67
   3   7   3   17.53    0.89
  -3   7  -3   18.23    0.97
  -3   7  -3   15.03    1.30
  -3  -7  -3   18.17    1.29
   3  -7   3   16.43    1.09
   3  -7   3   15.82    1.31
  -1   7  -5   35.05    1.80
  -1   7  -5   34.11    1.99
   1  -7   5   40.83    2.06
  -1  -7  -5   34.24    1.94
   1   7  -7  194.14    8.23
   1  -7  -7  220.60    8.03
   3   7  -9   17.62    1.65
   3  -7  -9   17.78    1.41
   3  -7  -9   18.99    1.59
   3  -7  -9   18.19    1.17
   6  -8   0   56.16    3.15
  -6  -8   0   61.31    2.98
  -4   8  -2  117.58    5.14
   4   8   2  118.57    4.47
  -4  -8  -2  123.79    4.95
   4  -8   2  117.40    5.14
  -2   8  -4   65.78    2.73
  -2   8  -4   62.44    3.13
   2  -8   4   62.64    3.09
  -2  -8  -4   66.03    3.12
   2  -8   4   67.52    2.69
   0   8  -6  108.09    4.43
   0  -8  -6  107.33    4.58
   2   8  -8   94.93    4.21
   2  -8  -8   92.64    3.71
   2  -8  -8   92.89    4.18
   2  -8  -8   90.32    3.47
   4  -8 -10   35.79    2.51
   5   9   1  211.90    7.76
  -5  -9  -1  209.64    8.18
  -3   9  -3   99.75    4.48
  -3   9  -3   97.74    3.79
  -3  -9  -3  102.74    4.34
   3  -9   3   96.31    4.43
  -1   9  -5  149.44    5.56
  -1   9  -5  134.01    5.87
   1  -9   5  146.70    5.19
  -1  -9  -5  136.36    5.77
   1   9  -7   93.54    4.10
   1  -9  -7   90.95    4.15
   3   9  -9  118.35    5.27
   3  -9  -9  114.88    5.18
  -4 -10  -2  188.50    7.44
  -2  10  -4  232.31    9.14
  -2  10  -4  227.20    8.49
  -2 -10  -4  235.12    8.96
   0  10  -6  209.76    8.05
   0 -10  -6  210.28    8.27
   2  10  -8  161.20    6.61
   2 -10  -8  156.06    6.61
  -5 -11  -1  113.67    4.94
  -3 -11  -3  222.79    8.73
  -1  11  -5  300.18   11.13
  -1 -11  -5  304.62   11.51
   1  11  -7  195.67    7.85
   1 -11  -7  200.53    8.03
  -4 -12  -2  150.69    6.29
  -2 -12  -4  208.39    8.33
   0  12  -6  135.16    5.62
   0 -12  -6  135.06    5.90
  -1 -13  -5  225.77    9.08
   8   0  -1    0.66    0.77
   6   0   1    0.27    0.48
  -6   0  -1    0.40    0.75
  -6   0  -1   -0.23    0.54
  -4   0  -3    0.47    0.43
   4   0   3    0.68    0.35
  -4   0  -3    0.00    0.36
  -4   0  -3   -0.11    0.31
  -4   0  -3    0.33    0.29
   4   0   3    0.43    0.33
  -2   0  -5    0.48    0.29
   2   0   5    0.04    0.24
  -2   0  -5    0.38    0.33
  -2   0  -5    0.21    0.24
   0   0   7    0.48    0.28
   0   0  -7    1.25    0.35
   0   0  -7    0.85    0.26
   2   0  -9   -0.10    0.27
   4   0 -11   -0.14    0.65
   4   0 -11    0.04    0.67
   4   0 -11    0.19    0.45
   7   1   0   30.53    2.03
   7  -1   0   32.21    2.08
   5   1   2   24.15    1.50
  -5   1  -2   24.18    1.68
  -5   1  -2   25.78    1.42
  -5  -1  -2   26.81    1.56
   5  -1   2   24.94    1.56
  -5  -1  -2   26.16    1.70
  -3   1  -4  103.98    4.05
   3   1   4   98.10    4.02
   3   1   4   97.37    3.96
  -3   1  -4  107.00    4.05
   3  -1   4   99.11    3.98
  -3  -1  -4  102.04    3.96
   3  -1   4   98.04    4.13
  -3  -1  -4  102.91    4.08
  -1   1  -6   41.82    1.96
  -1   1  -6   40.64    1.98
   1   1   6   43.22    1.93
  -1   1  -6   40.03    1.82
  -1  -1  -6   38.18    1.88
   1  -1   6   47.81    1.97
   1  -1   6   45.51    1.87
  -1  -1  -6   38.10    1.88
  -1  -1  -6   37.28    1.87
   1   1  -8   29.42    1.36
   1   1  -8   29.08    1.69
   1   1  -8   27.82    1.38
   1  -1  -8   27.38    1.29
   1  -1  -8   28.39    1.46
   3   1 -10   16.22    1.01
   3   1 -10   16.31    1.47
   3  -1 -10   14.09    1.37
   3  -1 -10   14.65    1.27
   3  -1 -10   14.46    1.11
   8   2  -1   47.20    2.71
   8  -2  -1   42.36    2.74
  -6   2  -1  163.72    6.97
   6   2   1  173.96    6.72
  -6   2  -1  175.55    6.46
   6  -2   1  168.94    6.81
  -6  -2  -1  176.91    7.03
   4   2   3   52.93    2.35
  -4   2  -3   52.19    2.60
   4  -2   3   46.94    2.32
   4  -2   3   54.42    2.50
  -4  -2  -3   50.45    2.44
   4  -2   3   54.23    2.59
  -4  -2  -3   53.56    2.31
  -4  -2  -3   54.82    2.49
  -4  -2  -3   53.36    2.56
  -2   2  -5  229.21    8.75
  -2   2  -5  229.38    8.60
  -2   2  -5  232.50    8.83
   2   2   5  256.42    8.79
   2  -2   5  248.36    8.81
  -2  -2  -5  236.15    8.58
  -2  -2  -5  219.10    8.71
  -2  -2  -5  228.39    8.73
   2  -2   5  261.11    8.64
   0   2  -7  129.60    4.97
   0   2  -7  127.87    4.85
   0   2   7  119.04    4.82
   0   2  -7  130.44    4.63
   0  -2  -7  130.51    4.71
   0  -2   7  120.09    4.61
   0  -2  -7  131.43    4.86
   0  -2   7  106.78    4.67
   2   2  -9   35.34    1.53
   2   2  -9   35.34    2.04
   2  -2  -9   33.26    1.77
   2  -2  -9   35.25    1.99
   4   2 -11   58.65    3.17
   4   2 -11   59.76    3.13
   4  -2 -11   56.07    3.07
   4  -2 -11   58.91    2.99
   4  -2 -11   59.06    2.85
   7   3   0  152.18    6.10
   7  -3   0  148.24    6.27
   5   3   2   58.00    2.80
  -5   3  -2   65.04    3.18
  -5   3  -2   68.91    2.72
  -5  -3  -2   66.95    3.14
  -5  -3  -2   67.53    2.84
   5  -3   2   58.62    3.06
   5  -3   2   58.63    2.97
  -5  -3  -2   72.14    3.08
  -3   3  -4  102.39    4.35
   3   3   4  110.85    4.16
   3   3   4  103.42    4.35
   3  -3   4  105.65    4.18
  -3  -3  -4  115.04    4.13
  -3  -3  -4  104.40    4.38
  -3  -3  -4  110.55    4.38
  -3  -3  -4  112.88    4.44
   3  -3   4  105.88    4.42
  -1   3  -6  445.35   16.25
   1   3   6  461.92   16.20
  -1   3  -6  452.36   15.90
  -1   3  -6  459.04   16.24
  -1  -3  -6  467.63   16.20
   1  -3   6  446.73   15.89
   1  -3   6  442.32   16.14
  -1  -3  -6  457.34   15.95
  -1  -3  -6  450.43   16.07
   1   3  -8  183.69    6.87
   1   3  -8  184.88    7.09
   1   3  -8  178.04    6.50
   1  -3  -8  182.22    6.92
   1  -3  -8  184.88    6.58
   3   3 -10   77.95    3.67
   3   3 -10   75.77    2.84
   3  -3 -10   75.79    3.50
   3  -3 -10   70.49    3.55
   3  -3 -10   76.43    3.53
   8   4  -1  162.15    6.73
   6   4   1  258.84   10.60
  -6   4  -1  273.21   10.66
  -6  -4  -1  285.59   10.68
   6  -4   1  287.71   10.51
  -4   4  -3  151.92    6.33
   4   4   3  161.64    5.93
  -4  -4  -3  153.72    6.17
  -4  -4  -3  156.43    5.87
   4  -4   3  165.70    6.24
  -4  -4  -3  156.49    6.27
   4  -4   3  160.81    6.31
  -2   4  -5  261.90   10.62
  -2   4  -5  285.80   10.74
   2   4   5  284.72   10.63
  -2  -4  -5  292.33   10.26
   2  -4   5  315.82   10.76
  -2  -4  -5  285.54   10.64
  -2  -4  -5  280.00   10.57
   2  -4   5  314.16   10.39
   0   4  -7  407.74   14.28
   0   4  -7  398.06   14.22
   0   4   7  366.04   14.19
   0  -4   7  382.17   13.73
   0  -4  -7  405.09   13.97
   0  -4  -7  406.87   14.24
   2   4  -9   97.07    4.19
   2  -4  -9   89.62    4.03
   2  -4  -9   93.65    3.76
   4   4 -11  225.80    9.24
   4  -4 -11  237.25    9.01
   4  -4 -11  235.48    8.92
   4  -4 -11  234.46    9.04
   7   5   0  272.25   10.16
   7  -5   0  265.24   10.40
  -5   5  -2  230.86    8.33
  -5   5  -2  224.48    9.03
   5   5   2  242.68    8.58
   5  -5   2  236.79    9.03
  -5  -5  -2  217.91    8.47
  -5  -5  -2  239.06    8.85
   5  -5   2  236.79    8.92
  -5  -5  -2  227.23    8.97
  -3   5  -4  276.59    9.61
  -3   5  -4  260.69   10.01
  -3  -5  -4  269.15    9.42
   3  -5   4  257.05    9.95
   3  -5   4  266.33    9.61
  -3  -5  -4  260.94    9.87
  -1   5  -6  328.88   11.81
  -1   5  -6  323.82   11.92
   1  -5   6  330.07   11.44
   1  -5   6  298.07   11.81
  -1  -5  -6  331.34   11.89
  -1  -5  -6  336.60   11.39
   1   5  -8  243.74    9.11
   1   5  -8  241.04    9.01
   1  -5  -8  235.13    8.60
   1  -5  -8  235.23    9.05
   1  -5  -8  244.26    8.61
   3   5 -10  143.88    6.20
   3  -5 -10  149.23    5.76
   3  -5 -10  150.24    6.00
   3  -5 -10  147.90    6.03
   6   6   1  244.61    9.79
  -6  -6  -1  265.07    9.81
  -6  -6  -1  265.93   10.12
   6  -6   1  251.84    9.92
   4   6   3  140.18    5.65
  -4   6  -3  159.00    5.68
   4  -6   3  142.40    6.19
  -4  -6  -3  161.39    5.66
  -4  -6  -3  161.82    6.14
  -2   6  -5  399.44   14.43
   2  -6   5  392.62   14.69
  -2  -6  -5  415.25   14.70
   2  -6   5  420.58   14.27
  -2  -6  -5  392.33   14.00
   0   6  -7  442.15   15.84
   0   6  -7  440.13   15.74
   0  -6  -7  432.22   15.16
   0  -6  -7  429.65   15.25
   2   6  -9  181.46    7.35
   2  -6  -9  187.04    6.78
   2  -6  -9  184.01    7.25
   4   6 -11  161.67    7.17
   4  -6 -11  168.06    6.73
   4  -6 -11  170.24    6.58
   4  -6 -11  165.81    6.88
   7   7   0  132.42    5.51
   7  -7   0  134.39    5.92
  -5   7  -2  232.74    9.92
   5   7   2  268.26    9.39
  -5  -7  -2  257.51    9.77
   5  -7   2  268.51    9.87
  -3   7  -4  369.70   14.04
  -3   7  -4  391.51   13.54
   3  -7   4  382.62   14.06
   3  -7   4  378.70   13.58
  -3  -7  -4  378.45   13.93
  -1   7  -6  127.54    5.20
  -1   7  -6  128.24    5.45
  -1  -7  -6  128.01    5.37
   1  -7   6  142.60    4.88
   1   7  -8  233.61    9.00
   1  -7  -8  239.48    9.02
   1  -7  -8  231.38    8.28
   3   7 -10  196.94    8.07
   3  -7 -10  199.19    7.72
   3  -7 -10  197.80    7.92
   6   8   1  109.97    4.47
   6  -8   1  110.46    4.94
  -6  -8  -1  104.31    4.74
  -4   8  -3  215.72    7.69
   4   8   3  211.51    7.69
  -4   8  -3  214.43    8.52
   4  -8   3  207.11    8.49
  -4  -8  -3  220.63    8.31
  -2   8  -5  219.05    8.58
  -2   8  -5  226.33    8.15
  -2  -8  -5  210.54    8.43
   2  -8   5  219.40    7.94
   0   8  -7  184.60    7.20
   0   8  -7  184.92    7.41
   0  -8  -7  185.04    7.32
   2   8  -9  143.78    6.08
   2  -8  -9  143.94    6.01
   2  -8  -9  141.27    5.40
  -5  -9  -2   99.45    4.45
  -3   9  -4  159.53    5.55
  -3   9  -4  143.59    6.16
   3  -9   4  127.06    6.07
  -3  -9  -4  149.73    6.02
  -1   9  -6   18.28    1.60
  -1   9  -6   20.92    1.44
  -1  -9  -6   18.66    1.55
   1   9  -8  130.10    5.55
   1  -9  -8  131.95    5.62
  -4 -10  -3   20.68    1.73
  -2  10  -5   31.09    2.23
  -2  10  -5   30.92    1.75
  -2 -10  -5   32.45    2.09
   0  10  -7   22.38    1.72
   0 -10  -7   22.67    1.82
   2  10  -9   24.20    2.07
   2 -10  -9   26.51    2.12
  -3 -11  -4   24.01    1.90
  -1  11  -6    5.00    0.89
  -1 -11  -6    3.47    0.94
   1  11  -8   31.51    2.25
   1 -11  -8   31.48    2.34
  -2 -12  -5    5.84    1.17
   0  12  -7    6.22    1.19
   0 -12  -7    6.81    1.66
   8   0   0  325.10   12.40
  -6   0  -2  209.02    8.45
   6   0   2  214.00    8.16
  -4   0  -4  451.58   16.51
   4   0   4  485.43   16.46
  -4   0  -4  459.75   16.65
  -4   0  -4  438.82   16.44
   2   0   6  372.02   13.96
  -2   0  -6  395.10   14.00
  -2   0  -6  398.11   14.12
  -2   0  -6  399.04   14.04
   0   0  -8   90.25    3.59
   0   0   8   87.81    3.59
   0   0  -8   90.28    3.58
   2   0 -10  213.35    8.26
   2   0 -10  209.99    7.81
   4   0 -12  218.09    8.75
   4   0 -12  218.38    8.63
   7   1   1  163.52    6.67
   7  -1   1  165.22    6.74
   5   1   3  192.02    7.05
  -5   1  -3  190.30    7.35
  -5   1  -3  178.64    6.94
  -5  -1  -3  192.45    7.34
   5  -1   3  160.92    7.70
  -3   1  -5  317.70   11.72
  -3   1  -5  311.55   11.51
  -3   1  -5  302.70   11.55
  -3  -1  -5  316.15   11.47
  -3  -1  -5  308.83   11.57
  -3  -1  -5  322.34   11.69
   3  -1   5  331.13   11.70
   3  -1   5  332.50   11.52
  -1   1  -7  297.48   10.67
   1   1   7  285.85   10.60
  -1   1  -7  294.55   10.51
  -1   1  -7  280.97   10.70
  -1  -1  -7  305.48   10.65
   1  -1   7  289.43   10.51
  -1  -1  -7  292.47   10.61
  -1  -1  -7  290.59   10.61
   1   1  -9  215.75    7.80
   1   1  -9  217.54    8.20
   1   1  -9  212.98    7.74
   1  -1  -9  208.93    7.87
   1  -1  -9  208.28    7.70
   3   1 -11  346.05   12.91
   3   1 -11  352.77   12.27
   3  -1 -11  344.23   12.85
   3  -1 -11  340.19   12.44
   3  -1 -11  330.05   12.63
   8   2   0  180.56    7.31
   8  -2   0  175.46    7.41
  -6   2  -2   57.33    3.16
  -6   2  -2   54.43    2.65
   6   2   2   64.59    2.93
  -6  -2  -2   58.26    3.12
   6  -2   2   64.52    3.03
   4   2   4  388.96   13.16
  -4   2  -4  357.22   13.44
   4  -2   4  372.95   13.29
  -4  -2  -4  347.30   13.35
  -4  -2  -4  350.40   13.26
  -4  -2  -4  366.42   13.07
   4  -2   4  369.45   13.41
  -2   2  -6  450.94   15.89
   2   2   6  422.04   15.99
  -2   2  -6  433.78   16.07
  -2   2  -6  467.38   16.15
  -2  -2  -6  472.83   15.90
   2  -2   6  445.80   15.86
  -2  -2  -6  458.78   16.04
   2  -2   6  441.40   16.05
  -2  -2  -6  439.94   16.02
   0   2  -8  273.60   10.15
   0   2  -8  288.00   10.35
   0   2   8  276.87   10.16
   0   2  -8  267.76    9.90
   0  -2  -8  275.74   10.15
   0  -2  -8  275.24   10.00
   0  -2   8  285.89    9.93
   2   2 -10  189.39    6.88
   2   2 -10  185.24    7.52
   2  -2 -10  189.74    7.23
   2  -2 -10  196.13    7.50
   4   2 -12  118.16    5.46
   4   2 -12  117.75    5.35
   4  -2 -12  127.18    5.07
   4  -2 -12  118.18    5.23
   4  -2 -12  121.76    5.42
   7   3   1   83.25    3.85
   7  -3   1   83.80    4.03
  -5   3  -3  154.23    5.59
   5   3   3  131.36    5.59
  -5   3  -3  149.56    6.09
   5  -3   3  139.18    5.85
   5  -3   3  129.31    5.91
  -5  -3  -3  159.24    6.08
  -5  -3  -3  152.92    5.91
  -3   3  -5  162.31    6.45
  -3  -3  -5  166.56    6.06
  -3  -3  -5  160.84    6.33
   3  -3   5  157.94    6.38
   3  -3   5  162.94    6.15
  -3  -3  -5  167.26    6.37
  -1   3  -7  218.72    8.51
  -1   3  -7  237.25    8.21
   1   3   7  213.78    8.77
  -1  -3  -7  231.93    8.49
  -1  -3  -7  232.60    8.28
  -1  -3  -7  216.40    8.33
   1  -3   7  235.74    8.21
   1   3  -9   69.30    2.76
   1   3  -9   72.27    3.37
   1   3  -9   71.17    3.11
   1  -3  -9   75.63    2.86
   1  -3  -9   72.55    3.19
   3   3 -11   84.72    4.29
   3  -3 -11   96.13    4.25
   3  -3 -11   93.74    4.04
   3  -3 -11   93.19    4.03
  -6   4  -2   50.29    2.94
   6   4   2   51.02    2.53
  -6  -4  -2   49.32    2.64
   6  -4   2   51.60    2.78
  -4   4  -4   91.47    3.93
   4   4   4   79.39    3.41
  -4  -4  -4   88.56    3.82
  -4  -4  -4   83.78    3.71
   4  -4   4   80.30    3.78
  -4  -4  -4   82.60    3.36
  -2   4  -6   73.89    3.37
  -2  -4  -6   76.00    2.95
  -2  -4  -6   75.24    3.24
   2  -4   6   68.49    3.65
  -2  -4  -6   78.15    3.32
   2  -4   6   74.18    3.02
   0  -4  -8   37.33    1.98
   0  -4   8   36.22    1.54
   0  -4  -8   36.73    1.74
   2   4 -10   55.80    2.99
   2  -4 -10   57.74    2.61
   2  -4 -10   57.16    2.79
   7   5   1   46.40    2.51
   7  -5   1   42.89    2.77
  -5   5  -3   22.59    1.32
   5   5   3   25.77    1.47
  -5   5  -3   24.22    1.87
  -5  -5  -3   23.37    1.75
   5  -5   3   24.63    1.81
  -5  -5  -3   22.63    1.63
  -5  -5  -3   22.74    1.41
   5  -5   3   27.74    1.83
  -3   5  -5    7.17    0.96
  -3   5  -5    8.76    0.83
  -3  -5  -5    8.17    0.66
   3  -5   5    8.89    1.11
  -3  -5  -5    8.59    0.98
   3  -5   5    7.86    0.83
  -3  -5  -5    8.19    0.92
  -1   5  -7   29.70    1.75
  -1   5  -7   27.72    1.76
  -1  -5  -7   29.80    1.72
  -1  -5  -7   32.45    1.40
   1  -5   7   34.12    1.44
  -1  -5  -7   24.92    2.19
   1   5  -9   58.93    2.94
   1   5  -9   55.70    2.75
   1  -5  -9   59.41    2.45
   1  -5  -9   57.08    2.38
   1  -5  -9   55.89    2.78
   3   5 -11    0.89    0.72
   3  -5 -11    1.32    0.67
   3  -5 -11    0.94    0.71
   3  -5 -11    0.51    0.71
   6   6   2    1.62    1.14
  -6  -6  -2    3.43    0.86
   6  -6   2    3.43    0.97
  -6  -6  -2    2.45    1.11
   4   6   4    0.90    0.42
  -4   6  -4    0.84    0.49
  -4   6  -4    0.72    0.42
  -4  -6  -4    1.81    0.71
  -4  -6  -4    1.33    0.61
  -4  -6  -4    0.54    0.34
   4  -6   4    0.23    0.81
  -2   6  -6   32.49    2.00
  -2   6  -6   35.10    1.84
  -2  -6  -6   34.63    1.41
   2  -6   6   32.86    1.61
  -2  -6  -6   35.25    1.99
   0   6  -8    5.47    0.98
   0   6  -8    4.92    0.86
   0  -6  -8    5.74    0.94
   0  -6  -8    4.93    0.52
   0  -6  -8    5.36    0.65
   2   6 -10   35.86    2.33
   2  -6 -10   36.30    2.24
   2  -6 -10   36.47    1.82
   7   7   1   24.08    1.86
   7  -7   1   23.57    3.02
  -5   7  -3   28.80    2.19
   5   7   3   34.45    1.69
  -5  -7  -3   27.37    1.95
  -5  -7  -3   29.73    2.09
  -3   7  -5  131.88    5.72
  -3   7  -5  143.50    5.31
   3  -7   5  128.16    5.21
  -3  -7  -5  137.97    5.63
  -3  -7  -5  137.93    4.89
  -1   7  -7   30.10    2.07
  -1   7  -7   25.99    2.18
  -1  -7  -7   29.13    1.82
   1  -7   7   26.24    1.38
   1   7  -9   15.01    1.50
   1  -7  -9   14.79    1.39
   3   7 -11   56.82    4.17
   3  -7 -11   52.30    3.04
   3  -7 -11   54.67    2.99
  -6  -8  -2   26.42    2.02
  -4   8  -4   48.26    2.85
  -4   8  -4   51.95    2.25
  -4  -8  -4   47.06    2.64
  -2   8  -6   95.64    3.99
  -2  -8  -6   94.36    4.26
   0   8  -8   44.85    2.60
   0   8  -8   47.22    2.54
   0  -8  -8   43.97    2.53
   2   8 -10   87.38    4.26
   2  -8 -10   86.72    3.39
   2  -8 -10   86.15    4.15
   2  -8 -10   83.83    3.41
  -5  -9  -3  146.37    6.18
  -3   9  -5  122.65    5.55
  -3   9  -5  126.10    4.94
  -3  -9  -5  128.14    5.43
  -1   9  -7   97.94    4.22
  -1   9  -7   96.39    4.54
  -1  -9  -7   97.32    4.40
   1   9  -9   53.32    2.94
   1  -9  -9   46.42    2.80
  -4 -10  -4  160.03    6.69
  -2  10  -6  112.22    5.28
  -2 -10  -6  117.58    5.15
   0  10  -8  195.14    7.66
   0 -10  -8  185.76    7.74
  -3 -11  -5  181.67    7.50
  -1  11  -7  304.16   11.15
  -1 -11  -7  287.83   11.40
   8   0   1    1.16    0.89
   6   0   3    0.36    0.56
  -6   0  -3    1.13    2.07
  -4   0  -5    0.02    0.42
  -4   0  -5    0.29    0.52
  -2   0  -7    0.29    0.32
  -2   0  -7    1.21    0.49
   2   0   7    0.20    0.40
  -2   0  -7   -0.54    0.46
   0   0  -9    0.41    0.37
   0   0  -9    0.19    0.32
   0   0   9    0.42    0.42
   2   0 -11    0.01    0.41
   2   0 -11   -0.14    0.60
   7   1   2    7.10    1.32
   7  -1   2    5.97    1.07
  -5  -1  -4   20.21    1.65
  -5  -1  -4   23.74    1.59
   5  -1   4   25.78    1.66
  -3   1  -6   67.70    3.16
  -3   1  -6   63.92    2.95
  -3  -1  -6   67.39    2.96
  -3  -1  -6   70.32    3.15
  -3  -1  -6   67.68    3.05
   1   1   8   24.83    1.52
  -1   1  -8   25.23    1.38
  -1  -1  -8   23.92    1.55
  -1  -1  -8   25.04    1.45
   1  -1   8   25.92    1.42
   1   1 -10   67.47    2.80
   1   1 -10   64.69    3.20
   1   1 -10   65.16    2.73
   1  -1 -10   64.95    2.69
   1  -1 -10   62.33    2.84
   3   1 -12   21.86    1.95
   3  -1 -12   19.46    1.90
   3  -1 -12   18.19    1.63
   3  -1 -12   17.05    1.74
  -6   2  -3   71.14    3.74
   6   2   3   77.94    3.45
   6  -2   3   74.60    3.60
  -6  -2  -3   73.91    3.73
  -4   2  -5  114.96    4.90
  -4  -2  -5  114.97    4.84
  -4  -2  -5  116.38    4.76
  -4  -2  -5  108.10    4.52
   4  -2   5  113.91    5.54
  -2   2  -7   86.85    3.50
  -2   2  -7   85.31    3.70
  -2  -2  -7   83.82    3.62
   2  -2   7   81.54    3.47
  -2  -2  -7   85.03    3.63
  -2  -2  -7   85.35    3.51
   0   2  -9   82.25    3.76
   0   2  -9   85.04    3.58
   0   2  -9   84.03    3.34
   0  -2  -9   77.57    3.40
   0  -2   9   94.48    3.41
   0  -2  -9   81.36    3.57
   2   2 -11  113.65    4.32
   2   2 -11  112.77    4.98
   2  -2 -11  107.33    4.68
   2  -2 -11  110.16    4.88
   7   3   2   55.96    2.98
   7  -3   2   60.35    3.24
  -5   3  -4  159.62    6.65
  -5   3  -4  173.11    7.15
   5   3   4  188.25    6.79
  -5  -3  -4  175.60    6.98
   5  -3   4  185.65    7.00
  -5  -3  -4  169.76    7.04
   5  -3   4  170.58    7.07
  -3   3  -6  101.48    4.40
  -3  -3  -6  104.38    4.32
  -3  -3  -6  106.49    4.04
   3  -3   6   90.96    4.05
  -3  -3  -6  102.89    4.39
  -1   3  -8   94.99    4.07
  -1   3  -8  100.47    4.24
  -1   3  -8   92.26    3.67
  -1  -3  -8   91.12    3.77
  -1  -3  -8   92.65    3.85
   1  -3   8   89.89    3.66
  -1  -3  -8   92.74    3.96
   1   3 -10  223.89    8.14
   1   3 -10  228.37    8.88
   1   3 -10  233.64    8.56
   1  -3 -10  225.15    8.21
   1  -3 -10  228.94    8.64
   3   3 -12   84.75    4.28
   3  -3 -12   85.13    3.90
   3  -3 -12   90.63    4.24
   3  -3 -12   82.52    3.90
   6   4   3  181.12    6.93
  -6   4  -3  172.62    7.43
   6  -4   3  186.35    7.29
  -6  -4  -3  172.35    7.34
  -6  -4  -3  177.28    7.18
  -4   4  -5  464.40   16.79
  -4  -4  -5  462.20   16.65
  -4  -4  -5  451.88   16.16
  -4  -4  -5  446.93   16.58
  -2   4  -7  134.95    5.51
  -2  -4  -7  130.38    5.38
  -2  -4  -7  132.30    5.01
  -2  -4  -7  127.97    5.28
   2  -4   7  137.00    5.08
   0   4  -9  157.86    6.49
   0   4  -9  161.15    6.38
   0  -4  -9  157.14    6.36
   0  -4  -9  157.81    6.10
   0  -4   9  177.10    5.89
   0  -4  -9  157.78    6.10
   2   4 -11  185.83    7.49
   2  -4 -11  175.85    7.22
   2  -4 -11  185.73    7.20
   2  -4 -11  178.04    7.28
   7   5   2  146.11    6.00
   7  -5   2  147.29    6.40
   5   5   4  344.59   12.37
   5  -5   4  348.99   13.54
  -5  -5  -4  329.36   12.72
  -3   5  -6  261.84    9.85
  -3   5  -6  258.82    9.44
  -3  -5  -6  261.83    9.67
  -3  -5  -6  256.05    9.12
   3  -5   6  228.59    9.26
  -3  -5  -6  257.17    9.65
  -1   5  -8  140.85    5.63
  -1   5  -8  133.72    5.64
  -1  -5  -8  137.03    5.61
   1  -5   8  144.31    5.12
  -1  -5  -8  131.78    5.41
  -1  -5  -8  138.32    5.15
   1   5 -10  276.03   10.26
   1   5 -10  266.22   10.45
   1  -5 -10  273.24    9.88
   1  -5 -10  275.55    9.79
   1  -5 -10  269.81   10.29
   6   6   3  182.97    7.13
  -6  -6  -3  182.28    7.46
   6  -6   3  184.15    7.52
  -4   6  -5  159.58    6.78
  -4   6  -5  166.26    6.26
  -4  -6  -5  162.43    6.62
  -2   6  -7  223.54    8.41
  -2   6  -7  204.39    8.65
  -2  -6  -7  227.99    8.39
  -2  -6  -7  225.95    8.51
  -2  -6  -7  218.38    7.85
   2  -6   7  212.93    7.97
   0   6  -9  207.15    8.22
   0   6  -9  215.89    8.26
   0  -6  -9  211.16    7.86
   0  -6  -9  203.13    8.17
   0  -6  -9  212.32    7.56
   2   6 -11  256.60   10.26
   2  -6 -11  265.39   10.09
   5   7   4  119.72    4.93
  -5   7  -4  121.43    5.62
  -5  -7  -4  131.68    5.55
  -5  -7  -4  123.25    5.37
  -3   7  -6  270.09   10.10
  -3   7  -6  265.86   10.54
  -3  -7  -6  279.59   10.41
  -3  -7  -6  276.96   10.43
  -1   7  -8  316.90   11.87
  -1   7  -8  299.39   11.62
  -1  -7  -8  310.23   11.73
  -1  -7  -8  321.76   11.53
   1   7 -10  164.96    6.76
   1  -7 -10  157.37    6.62
   1  -7 -10  159.72    6.06
  -6  -8  -3  127.01    5.41
  -6  -8  -3  111.38    5.80
  -4   8  -5   78.31    3.41
  -4  -8  -5   84.84    3.95
  -4  -8  -5   78.14    3.83
  -2   8  -7  179.68    7.54
  -2   8  -7  184.90    7.19
  -2  -8  -7  188.84    7.47
   0   8  -9  158.07    6.61
   0   8  -9  158.59    6.52
   0  -8  -9  154.46    6.52
   0  -8  -9  155.96    6.13
  -5  -9  -4   35.27    2.47
  -5  -9  -4   33.55    2.36
  -3   9  -6   79.49    3.52
  -3   9  -6   75.95    4.03
  -3  -9  -6   80.80    3.89
  -1   9  -8   88.43    4.37
  -1   9  -8   87.60    4.07
  -1  -9  -8   92.75    4.26
   1   9 -10   23.83    2.22
   1  -9 -10   24.79    2.26
  -4 -10  -5   15.80    1.75
  -2  10  -7   65.60    3.15
  -2  10  -7   58.16    3.46
  -2 -10  -7   61.23    3.32
   0  10  -9   14.69    1.80
   6   0   4  358.11   13.37
  -6   0  -4  362.34   13.71
  -4   0  -6  183.34    7.27
  -4   0  -6  178.46    7.07
  -2   0  -8  247.13    9.19
  -2   0  -8  246.32    9.32
   0   0 -10  330.55   12.12
   0   0 -10  339.24   12.16
   2   0 -12   75.55    3.85
   2   0 -12   75.12    3.27
   7   1   3  228.20    9.03
   7  -1   3  232.88    9.14
  -5  -1  -5  174.44    7.09
  -5  -1  -5  182.71    7.33
  -3   1  -7  234.46    8.90
  -3  -1  -7  234.86    8.96
  -3  -1  -7  242.10    9.11
  -1   1  -9  301.40   10.63
  -1   1  -9  289.78   10.79
   1  -1   9  279.94   10.60
  -1  -1  -9  293.98   10.71
  -1  -1  -9  290.69   10.73
   1   1 -11  192.07    7.34
   1   1 -11  192.12    7.40
   1   1 -11  205.81    8.00
   1  -1 -11  201.87    7.94
   1  -1 -11  197.13    7.30
   1  -1 -11  202.15    7.54
   6   2   4  220.76    8.31
  -6   2  -4  209.30    8.67
  -6  -2  -4  209.88    8.65
   6  -2   4  213.57    8.42
  -4   2  -6  175.12    6.99
  -4  -2  -6  167.19    6.79
  -2   2  -8  126.68    4.96
  -2   2  -8  123.46    5.19
  -2  -2  -8  130.07    5.12
  -2  -2  -8  120.31    5.00
  -2  -2  -8  127.33    5.15
   2  -2   8  124.86    4.96
   0   2 -10  333.01   12.40
   0   2 -10  333.91   12.67
   0   2 -10  344.92   12.15
   0  -2 -10  339.05   12.25
   0  -2 -10  345.31   12.62
   2   2 -12   88.53    4.35
   2  -2 -12   90.63    3.94
   2  -2 -12   89.32    4.30
   7   3   3   58.79    3.12
   7  -3   3   61.62    3.37
  -5   3  -5   90.65    4.26
  -5  -3  -5   86.95    4.08
  -3   3  -7  110.80    5.44
  -3  -3  -7  122.31    5.02
  -3  -3  -7  124.20    5.02
  -3  -3  -7  117.67    4.70
  -1   3  -9  135.70    4.99
  -1   3  -9  128.76    5.34
  -1   3  -9  133.98    5.43
   1  -3   9  121.94    4.94
  -1  -3  -9  132.66    5.30
  -1  -3  -9  130.78    5.19
  -1  -3  -9  123.24    5.09
   1   3 -11   94.43    4.42
   1   3 -11   95.20    4.06
   1  -3 -11   96.72    3.72
   1  -3 -11   93.73    4.13
   6   4   4   33.99    2.08
  -6   4  -4   33.96    2.50
  -6  -4  -4   32.82    2.41
  -6  -4  -4   31.95    2.18
  -4   4  -6   24.75    1.86
  -4  -4  -6   23.86    1.70
  -4  -4  -6   23.53    1.70
  -4  -4  -6   19.73    1.38
  -2   4  -8   26.92    1.80
  -2   4  -8   24.62    1.68
  -2  -4  -8   25.47    1.59
  -2  -4  -8   24.33    1.68
   2  -4   8   21.09    1.39
  -2  -4  -8   26.72    1.45
   0   4 -10   26.29    1.75
   0   4 -10   25.35    1.91
   0  -4 -10   28.42    1.56
   0  -4 -10   28.26    1.82
   2   4 -12   32.31    2.51
   2  -4 -12   34.10    2.24
   2  -4 -12   35.66    2.45
   2  -4 -12   35.08    2.09
  -5   5  -5   49.51    2.96
  -5  -5  -5   49.55    2.75
  -5  -5  -5   46.95    2.75
  -3   5  -7   61.28    3.23
  -3   5  -7   62.99    2.96
  -3  -5  -7   59.84    3.06
  -3  -5  -7   61.26    3.02
  -1   5  -9    5.93    1.12
  -1   5  -9    5.30    1.05
  -1  -5  -9    5.13    0.99
  -1  -5  -9    4.33    0.77
   1   5 -11   13.41    1.65
   1  -5 -11   13.88    0.98
   1  -5 -11   15.03    1.50
   1  -5 -11   13.41    1.23
   6   6   4   28.77    1.95
  -6  -6  -4   25.89    2.09
  -6  -6  -4   27.64    2.24
  -4   6  -6    5.50    1.03
  -4  -6  -6    5.71    1.24
  -4  -6  -6    5.12    0.99
  -2   6  -8    4.83    0.92
  -2   6  -8    3.74    0.90
  -2  -6  -8    4.93    0.96
  -2  -6  -8    2.81    0.76
   0   6 -10   16.97    1.58
   0   6 -10   14.60    1.63
   0  -6 -10   15.10    1.50
   0  -6 -10   15.11    1.15
  -5   7  -5   40.61    2.80
  -5  -7  -5   38.49    2.57
  -5  -7  -5   40.55    2.55
  -3   7  -7    5.84    1.06
  -3   7  -7    8.07    1.52
  -3  -7  -7    3.71    0.77
  -3  -7  -7    5.26    1.03
  -1   7  -9   88.97    4.11
  -1   7  -9   79.60    3.89
  -1  -7  -9   80.13    3.90
  -1  -7  -9   80.92    3.67
   1   7 -11   29.94    2.39
   1  -7 -11   30.97    1.65
   1  -7 -11   33.17    2.28
  -4   8  -6   40.47    2.32
  -4   8  -6   40.20    2.80
  -4  -8  -6   42.82    2.59
  -4  -8  -6   40.39    2.53
  -2   8  -8   79.68    3.77
  -2   8  -8   84.71    4.14
  -2  -8  -8   80.31    3.92
  -2  -8  -8   81.01    3.80
   0   8 -10  101.43    4.59
   0  -8 -10   93.52    4.05
   0  -8 -10   90.00    4.39
  -3   9  -7   87.83    4.49
  -3   9  -7   90.36    4.01
  -3  -9  -7   82.31    4.20
  -3  -9  -7   89.74    4.21
  -1   9  -9   91.21    4.21
  -1   9  -9   87.01    4.37
  -1  -9  -9   83.88    4.21
  -1  -9  -9   87.14    3.97
  -6   0  -5    0.26    0.88
  -4   0  -7    0.21    0.51
  -4   0  -7    0.09    0.64
  -2   0  -9    0.19    0.49
  -2   0  -9   -0.04    0.49
   0   0 -11    1.11    0.58
   0   0 -11   -0.36    0.47
   7   1   4    8.69    1.58
   7  -1   4    7.44    1.27
  -5   1  -6   14.88    1.60
  -5  -1  -6   13.20    1.52
  -5  -1  -6   13.58    1.36
  -3   1  -8   12.24    1.20
  -3   1  -8   12.79    1.31
  -3  -1  -8   11.87    1.23
  -3  -1  -8   12.82    1.26
  -1   1 -10   24.80    1.65
  -1   1 -10   25.84    1.56
  -1  -1 -10   24.90    1.61
  -1  -1 -10   25.50    1.64
   1   1 -12    6.26    1.22
   1   1 -12    6.76    0.89
   1  -1 -12    5.49    1.05
   1  -1 -12    5.10    1.14
   1  -1 -12    6.75    0.82
   6   2   5   27.27    2.05
  -6  -2  -5   36.60    2.47
  -4   2  -7   50.65    2.86
  -4  -2  -7   50.77    2.79
  -4  -2  -7   51.21    2.72
  -2   2  -9  162.97    6.49
  -2   2  -9  158.88    6.17
  -2  -2  -9  156.71    6.31
  -2  -2  -9  158.17    6.37
   0   2 -11   29.80    2.17
   0   2 -11   31.01    1.84
   0   2 -11   31.03    1.62
   0  -2 -11   28.99    1.67
   0  -2 -11   28.58    1.88
  -5  -3  -6   80.62    3.93
  -5  -3  -6   81.99    4.02
  -3   3  -8  157.62    6.46
  -3  -3  -8  150.42    6.31
  -3  -3  -8  155.89    6.30
  -1   3 -10  113.76    4.99
  -1   3 -10  114.29    4.88
  -1   3 -10  115.56    4.48
  -1  -3 -10  109.76    4.68
  -1  -3 -10  114.86    4.83
   1   3 -12   44.62    2.38
   1   3 -12   44.45    2.81
   1  -3 -12   44.45    2.54
   1  -3 -12   43.19    2.00
  -6  -4  -5   73.56    3.81
  -6  -4  -5   76.97    4.01
  -4   4  -7  128.43    5.60
  -4  -4  -7  122.11    5.41
  -4  -4  -7  124.85    5.39
  -2   4  -9  308.05   11.71
  -2   4  -9  311.49   11.62
  -2  -4  -9  306.22   11.52
  -2  -4  -9  307.61   11.59
   0   4 -11  117.89    5.15
   0   4 -11  110.71    4.85
   0  -4 -11  109.42    4.88
   0  -4 -11  116.22    4.60
  -5   5  -6  160.58    6.84
  -5  -5  -6  148.14    6.57
  -5  -5  -6  158.90    6.60
  -3   5  -8  195.37    7.85
  -3   5  -8  188.85    7.52
  -3  -5  -8  186.95    7.60
  -3  -5  -8  194.34    7.66
  -1   5 -10  185.78    7.62
  -1   5 -10  190.12    7.68
  -1  -5 -10  190.33    7.58
  -1  -5 -10  193.69    7.38
  -4   6  -7  146.80    5.90
  -4   6  -7  150.39    6.42
  -4  -6  -7  144.70    6.18
  -4  -6  -7  138.25    6.15
  -2   6  -9  235.68    9.09
  -2   6  -9  225.35    8.87
  -2  -6  -9  218.22    8.76
  -2  -6  -9  229.34    8.95
   0   6 -11   81.96    4.02
   0   6 -11   86.07    4.21
   0  -6 -11   83.88    3.63
   0  -6 -11   83.23    4.02
  -5  -7  -6  194.43    8.09
  -3   7  -8  153.72    6.75
  -3   7  -8  159.24    6.40
  -3  -7  -8  154.56    6.58
  -3  -7  -8  160.03    6.59
  -1   7 -10  220.72    8.64
  -1   7 -10  211.18    8.49
  -1  -7 -10  211.23    8.47
  -1  -7 -10  203.44    8.15
  -2   8  -9   62.28    3.39
  -2   8  -9   70.08    3.78
  -2  -8  -9   65.97    3.61
  -2  -8  -9   64.55    3.31
  -6   0  -6  143.63    6.47
  -4   0  -8  251.66    9.76
  -4   0  -8  257.31   10.00
  -2   0 -10  141.32    5.71
  -2   0 -10  139.93    5.82
   0   0 -12  125.91    5.00
   0   0 -12  117.37    5.47
   0   0 -12  123.87    5.02
  -5   1  -7  192.10    8.06
  -5  -1  -7  197.12    7.87
  -5  -1  -7  196.36    8.06
  -3   1  -9  228.35    9.02
  -3   1  -9  232.41    8.79
  -3  -1  -9  228.24    8.85
  -3  -1  -9  229.89    9.02
  -1   1 -11   94.24    4.15
  -1   1 -11   96.36    3.97
  -1  -1 -11   89.08    4.03
  -1  -1 -11   92.02    4.07
  -6   2  -6   91.87    4.72
  -6  -2  -6   93.22    4.69
  -4   2  -8  230.87    9.34
  -4  -2  -8  234.91    9.36
  -4  -2  -8  242.83    9.24
  -2   2 -10  104.35    4.72
  -2   2 -10  105.23    4.44
  -2  -2 -10  109.72    4.66
  -2  -2 -10  108.05    4.68
   0   2 -12  107.33    5.02
   0   2 -12  106.81    4.61
   0  -2 -12  104.26    4.40
   0  -2 -12  109.86    4.64
  -5   3  -7   35.17    2.56
  -5  -3  -7   35.51    2.52
  -5  -3  -7   38.01    2.47
  -3   3  -9   98.48    4.59
  -3  -3  -9   99.66    4.45
  -3  -3  -9   98.42    4.52
  -1   3 -11   99.29    4.53
  -1   3 -11  103.04    4.75
  -1  -3 -11  102.40    4.54
  -1  -3 -11  104.27    4.40
  -4   4  -8    7.15    1.45
  -4  -4  -8   10.39    1.38
  -4  -4  -8    9.65    1.41
  -2   4 -10   25.65    2.07
  -2   4 -10   26.19    1.97
  -2  -4 -10   25.67    1.98
  -2  -4 -10   25.65    1.82
  -5   5  -7   25.33    2.31
  -5  -5  -7   24.20    2.10
  -3   5  -9   18.79    1.79
  -3   5  -9   19.29    1.81
  -3  -5  -9   19.31    1.71
  -3  -5  -9   18.57    1.67
  -1   5 -11   18.00    1.76
  -1   5 -11   14.45    1.82
  -1  -5 -11   16.35    1.72
  -4   6  -8    9.44    1.64
  -4   6  -8   13.65    1.65
  -4  -6  -8   13.64    2.20
  -4  -6  -8   13.56    1.54
  -2   6 -10    6.05    1.22
  -2   6 -10    7.07    1.54
  -2  -6 -10    7.24    1.44
  -2  -6 -10    7.53    1.33
  -4   0  -9    0.32    0.75
  -4   0  -9    0.38    0.88
  -2   0 -11    0.13    0.69
  -2   0 -11    0.00    0.68
  -3   1 -10    0.35    0.80
  -3   1 -10   -0.17    0.69
  -3  -1 -10    0.87    0.77
  -3  -1 -10   -0.42    0.77
  -4   2  -9   26.27    2.16
  -4  -2  -9   25.60    2.01
  -4  -2  -9   26.34    2.13
  -2   2 -11   12.85    1.50
  -2   2 -11   15.67    1.41
  -2  -2 -11   12.06    1.56
  -2  -2 -11   13.03    1.66
  -3   3 -10   67.56    3.60
  -3  -3 -10   67.16    3.50
  -3  -3 -10   70.01    3.53
   0   0   0    0.00    0.00
;
_shelx_hkl_checksum              50335
loop_
_space_group_symop_operation_xyz
'x, y, z'
'x, -y, z+1/2'
'x+1/2, y+1/2, z'
'x+1/2, -y+1/2, z+1/2'
loop_
_atom_site_label
_atom_site_type_symbol
_atom_site_fract_x
_atom_site_fract_y
_atom_site_fract_z
_atom_site_U_iso_or_equiv
_atom_site_adp_type
_atom_site_occupancy
_atom_site_site_symmetry_order
_atom_site_calc_flag
_atom_site_refinement_flags_posn
_atom_site_refinement_flags_adp
_atom_site_refinement_flags_occupancy
_atom_site_disorder_assembly
_atom_site_disorder_group
La1 La 0.64558(3) 0.79357(2) 0.55560(3) 0.00539(9) Uani 1 1 d . . . . .
B1 B 0.3334(7) 0.5543(4) 0.6361(5) 0.0080(8) Uani 1 1 d . . . . .
B2 B 0.9930(7) 0.5940(4) 0.6853(5) 0.0063(8) Uani 1 1 d . . . . .
B3 B 1.2459(7) 0.7557(4) 0.7082(5) 0.0071(8) Uani 1 1 d . . . . .
B4 B 0.6757(7) 0.4662(4) 0.6167(5) 0.0069(8) Uani 1 1 d . . . . .
O1 O 0.9582(4) 0.9626(2) 0.6047(3) 0.0083(5) Uani 1 1 d . . . . .
O2 O 0.7999(5) 0.7241(2) 0.3610(3) 0.0107(6) Uani 1 1 d . . . . .
O3 O 1.0306(5) 0.7171(2) 0.6563(3) 0.0055(6) Uani 1 1 d . . . . .
O4 O 0.6299(4) 1.0155(2) 0.6245(3) 0.0068(5) Uani 1 1 d . . . . .
O5 O 0.7673(4) 0.5734(2) 0.6119(3) 0.0071(5) Uani 1 1 d . . . . .
O6 O 0.5338(4) 0.9275(3) 0.3380(3) 0.0106(6) Uani 1 1 d . . . . .
O7 O 0.4005(4) 0.6649(2) 0.6774(3) 0.0065(5) Uani 1 1 d . . . . .
O8 O 0.7920(4) 0.3638(2) 0.6343(3) 0.0074(5) Uani 1 1 d . . . . .
Cl1 Cl 0.78460(15) 0.82533(10) 0.86228(11) 0.01241(19) Uani 1 1 d . . . . .
loop_
_atom_site_aniso_label
_atom_site_aniso_U_11
_atom_site_aniso_U_22
_atom_site_aniso_U_33
_atom_site_aniso_U_23
_atom_site_aniso_U_13
_atom_site_aniso_U_12
La1 0.00613(12) 0.00399(12) 0.00610(11) -0.00019(11) 0.00172(7) -0.00008(10)
B1 0.008(2) 0.007(2) 0.0094(19) 0.0030(17) 0.0034(16) 0.0008(16)
B2 0.0058(19) 0.0041(19) 0.0091(18) -0.0022(16) 0.0023(15) -0.0009(15)
B3 0.009(2) 0.004(2) 0.0094(19) -0.0001(17) 0.0039(15) -0.0010(16)
B4 0.0077(19) 0.0056(18) 0.0078(16) -0.0008(16) 0.0026(15) -0.0005(16)
O1 0.0047(12) 0.0049(12) 0.0156(13) 0.0000(11) 0.0034(10) 0.0012(10)
O2 0.0103(15) 0.0139(13) 0.0075(14) 0.0013(12) 0.0019(11) 0.0026(11)
O3 0.0052(13) 0.0026(13) 0.0087(14) 0.0003(9) 0.0017(11) -0.0003(9)
O4 0.0045(12) 0.0035(12) 0.0137(13) -0.0017(11) 0.0048(10) -0.0017(10)
O5 0.0040(12) 0.0033(12) 0.0138(13) 0.0017(11) 0.0017(10) 0.0000(10)
O6 0.0137(14) 0.0102(14) 0.0070(13) 0.0007(11) 0.0013(10) -0.0011(11)
O7 0.0049(13) 0.0044(12) 0.0100(13) 0.0004(12) 0.0012(10) 0.0008(11)
O8 0.0056(13) 0.0062(12) 0.0112(13) 0.0009(11) 0.0037(10) -0.0012(10)
Cl1 0.0125(5) 0.0155(4) 0.0084(4) 0.0003(4) 0.0012(3) 0.0047(4)
loop_
_atom_type_symbol
_atom_type_description
_atom_type_scat_dispersion_real
_atom_type_scat_dispersion_imag
_atom_type_scat_source
B B 0.0013 0.0007 'International Tables Vol C Tables 4.2.6.8 and 6.1.1.4'
O O 0.0106 0.0060 'International Tables Vol C Tables 4.2.6.8 and 6.1.1.4'
Cl Cl 0.1484 0.1585 'International Tables Vol C Tables 4.2.6.8 and 6.1.1.4'
La La -0.2871 2.4523 'International Tables Vol C Tables 4.2.6.8 and 6.1.1.4'
loop_
_geom_angle_atom_site_label_1
_geom_angle_atom_site_label_2
_geom_angle_atom_site_label_3
_geom_angle
_geom_angle_site_symmetry_1
_geom_angle_site_symmetry_3
O2 La1 O6 68.35(9) . .
O2 La1 O4 123.33(9) . .
O6 La1 O4 68.21(8) . .
O2 La1 O5 72.86(9) . .
O6 La1 O5 137.58(9) . .
O4 La1 O5 152.44(9) . .
O2 La1 O3 69.11(10) . .
O6 La1 O3 123.26(9) . .
O4 La1 O3 108.71(8) . .
O5 La1 O3 52.78(8) . .
O2 La1 O7 125.59(9) . .
O6 La1 O7 128.48(8) . .
O4 La1 O7 109.66(8) . .
O5 La1 O7 64.85(8) . .
O3 La1 O7 106.54(8) . .
O2 La1 O1 85.42(9) . .
O6 La1 O1 76.90(9) . .
O4 La1 O1 50.56(8) . .
O5 La1 O1 116.73(8) . .
O3 La1 O1 63.95(8) . .
O7 La1 O1 143.77(9) . .
O2 La1 O8 147.46(9) . 3_455
O6 La1 O8 89.39(9) . 3_455
O4 La1 O8 63.56(8) . 3_455
O5 La1 O8 116.45(8) . 3_455
O3 La1 O8 142.46(9) . 3_455
O7 La1 O8 51.62(8) . 3_455
O1 La1 O8 113.26(8) . 3_455
O2 La1 Cl1 138.01(8) . .
O6 La1 Cl1 136.85(7) . .
O4 La1 Cl1 68.75(6) . .
O5 La1 Cl1 84.47(6) . .
O3 La1 Cl1 69.01(7) . .
O7 La1 Cl1 70.42(6) . .
O1 La1 Cl1 73.71(6) . .
O8 La1 Cl1 74.37(6) 3_455 .
O2 La1 Cl1 77.31(8) . 4_464
O6 La1 Cl1 74.00(7) . 4_464
O4 La1 Cl1 121.85(6) . 4_464
O5 La1 Cl1 81.50(6) . 4_464
O3 La1 Cl1 128.94(6) . 4_464
O7 La1 Cl1 64.34(6) . 4_464
O1 La1 Cl1 150.00(6) . 4_464
O8 La1 Cl1 73.77(6) 3_455 4_464
Cl1 La1 Cl1 134.43(4) . 4_464
O2 La1 B2 72.56(10) . .
O6 La1 B2 139.49(10) . .
O4 La1 B2 129.96(9) . .
O5 La1 B2 27.05(9) . .
O3 La1 B2 26.27(9) . .
O7 La1 B2 83.48(9) . .
O1 La1 B2 90.00(10) . .
O8 La1 B2 130.60(10) 3_455 .
Cl1 La1 B2 71.46(8) . .
Cl1 La1 B2 107.54(8) 4_464 .
O7 B1 O1 125.9(4) . 3_445
O7 B1 O4 123.3(4) . 3_445
O1 B1 O4 110.7(3) 3_445 3_445
O3 B2 O6 111.3(3) . 4_565
O3 B2 O5 104.7(3) . .
O6 B2 O5 111.1(3) 4_565 .
O3 B2 O4 109.8(3) . 3_545
O6 B2 O4 110.1(3) 4_565 3_545
O5 B2 O4 109.8(3) . 3_545
O3 B2 La1 52.49(18) . .
O6 B2 La1 116.0(2) 4_565 .
O5 B2 La1 53.59(17) . .
O4 B2 La1 133.8(3) 3_545 .
O3 B3 O8 112.4(3) . 3
O3 B3 O2 111.2(3) . 4_565
O8 B3 O2 110.4(3) 3 4_565
O3 B3 O7 111.4(3) . 1_655
O8 B3 O7 102.9(3) 3 1_655
O2 B3 O7 108.3(3) 4_565 1_655
O8 B4 O5 121.4(4) . .
O8 B4 O1 120.4(4) . 3_445
O5 B4 O1 118.2(4) . 3_445
B1 O1 B4 126.8(3) 3 3
B1 O1 La1 95.8(2) 3 .
B4 O1 La1 137.0(2) 3 .
B3 O2 La1 134.0(2) 4_464 .
B2 O3 B3 115.0(3) . .
B2 O3 La1 101.2(2) . .
B3 O3 La1 142.9(2) . .
B1 O4 B2 116.6(3) 3 3_455
B1 O4 La1 102.9(2) 3 .
B2 O4 La1 138.1(2) 3_455 .
B4 O5 B2 121.1(3) . .
B4 O5 La1 137.7(3) . .
B2 O5 La1 99.4(2) . .
B2 O6 La1 133.5(2) 4_464 .
B1 O7 B3 120.0(3) . 1_455
B1 O7 La1 123.6(2) . .
B3 O7 La1 103.4(2) 1_455 .
B4 O8 B3 125.1(3) . 3_445
B4 O8 La1 133.6(3) . 3_545
B3 O8 La1 101.3(2) 3_445 3_545
La1 Cl1 La1 126.06(4) . 4_565
loop_
_geom_bond_atom_site_label_1
_geom_bond_atom_site_label_2
_geom_bond_distance
_geom_bond_site_symmetry_2
La1 O2 2.507(3) .
La1 O6 2.558(3) .
La1 O4 2.596(3) .
La1 O5 2.615(3) .
La1 O3 2.593(3) .
La1 O7 2.663(3) .
La1 O1 2.737(3) .
La1 O8 2.736(3) 3_455
La1 Cl1 2.9277(14) .
La1 Cl1 2.9301(12) 4_464
La1 B2 3.206(4) .
B1 O7 1.345(5) .
B1 O1 1.399(5) 3_445
B1 O4 1.374(5) 3_445
B2 O3 1.447(5) .
B2 O6 1.471(5) 4_565
B2 O5 1.478(5) .
B2 O4 1.489(5) 3_545
B3 O3 1.430(5) .
B3 O8 1.486(5) 3
B3 O2 1.465(5) 4_565
B3 O7 1.522(5) 1_655
B4 O8 1.366(5) .
B4 O5 1.352(5) .
B4 O1 1.394(5) 3_445
O1 B1 1.399(5) 3
O1 B4 1.394(5) 3
O2 B3 1.464(5) 4_464
O4 B1 1.374(5) 3
O4 B2 1.489(5) 3_455
O6 B2 1.471(5) 4_464
O7 B3 1.522(5) 1_455
O8 B3 1.486(5) 3_445
O8 La1 2.736(3) 3_545
Cl1 La1 2.9301(12) 4_565
