#------------------------------------------------------------------------------
#$Date: 2020-11-12 07:14:10 +0200 (Thu, 12 Nov 2020) $
#$Revision: 259107 $
#$URL: file:///home/coder/svn-repositories/cod/cif/2/10/86/2108691.cif $
#------------------------------------------------------------------------------
#
# This file is available in the Crystallography Open Database (COD),
# http://www.crystallography.net/. The original data for this entry
# were provided by IUCr Journals, http://journals.iucr.org/.
#
# The file may be used within the scientific community so long as
# proper attribution is given to the journal article from which the
# data were obtained.
#
data_2108691
loop_
_publ_author_name
'Volkov, Sergey'
'Bubnova, Rimma'
'Krzhizhanovskaya, Maria'
'Galafutnik, Lydia'
_publ_section_title
;
 The first bismuth borate oxyiodide, Bi~4~BO~7~I: commensurate or
 incommensurate?
;
_journal_coeditor_code           DQ5047SUP1
_journal_issue                   6
_journal_name_full               'Acta Crystallographica Section B'
_journal_page_first
;
;
_journal_paper_doi               10.1107/S2052520620012640
_journal_volume                  76
_journal_year                    2020
_chemical_formula_structural     'Bi4 B O7 I'
_chemical_formula_sum            'B Bi4 I O7'
_chemical_formula_weight         1085.6
_space_group_IT_number           71
_space_group_name_Hall           '-I 2 2'
_space_group_name_H-M_alt        'I m m m'
_space_group_ssg_name            Immm(00\g)000
_symmetry_cell_setting           orthorhombic
_cell_angle_alpha                90
_cell_angle_beta                 90
_cell_angle_gamma                90
_cell_formula_units_Z            1
_cell_length_a                   3.959(2)
_cell_length_b                   13.453(7)
_cell_length_c                   3.969(2)
_cell_measurement_reflns_used    4102
_cell_measurement_temperature    293
_cell_measurement_theta_max      28.97
_cell_measurement_theta_min      3.03
_cell_modulation_dimension       1
_cell_volume                     211.39(19)
_diffrn_ambient_temperature      293
_diffrn_measured_fraction_theta_full 0.88
_diffrn_measured_fraction_theta_max 0.86
_diffrn_measurement_device       'four-circle diffractometer'
_diffrn_measurement_device_type  'Bruker APEX II CCD detector'
_diffrn_measurement_method       'omega and phi scans'
_diffrn_radiation_monochromator  graphite
_diffrn_radiation_probe          x-ray
_diffrn_radiation_source         'X-ray tube'
_diffrn_radiation_type           'Mo K\a'
_diffrn_radiation_wavelength     0.71073
_diffrn_reflns_av_R_equivalents  0.0789
_diffrn_reflns_av_unetI/netI     0.0774
_diffrn_reflns_limit_h_max       5
_diffrn_reflns_limit_h_min       -5
_diffrn_reflns_limit_index_m_1_max 2
_diffrn_reflns_limit_index_m_1_min -2
_diffrn_reflns_limit_k_max       18
_diffrn_reflns_limit_k_min       -18
_diffrn_reflns_limit_l_max       5
_diffrn_reflns_limit_l_min       -5
_diffrn_reflns_number            3637
_diffrn_reflns_theta_full        22.03
_diffrn_reflns_theta_max         28.97
_diffrn_reflns_theta_min         3.03
_exptl_absorpt_coefficient_mu    86.647
_exptl_absorpt_correction_T_max  0.4622
_exptl_absorpt_correction_T_min  0.2312
_exptl_absorpt_correction_type   analytical
_exptl_absorpt_process_details   'SADABS, (Bruker,2016)'
_exptl_crystal_colour            'dark orange'
_exptl_crystal_density_diffrn    8.5279
_exptl_crystal_description       isometric
_exptl_crystal_F_000             446
_exptl_crystal_size_max          0.065
_exptl_crystal_size_mid          0.046
_exptl_crystal_size_min          0.040
_refine_diff_density_max         4.28
_refine_diff_density_min         -5.56
_refine_ls_extinction_coef       22(5)
_refine_ls_extinction_method
'B-C type 1 Gaussian isotropic (Becker & Coppens, 1974)'
_refine_ls_goodness_of_fit_gt    1.39
_refine_ls_goodness_of_fit_ref   1.10
_refine_ls_number_constraints    9
_refine_ls_number_parameters     48
_refine_ls_number_reflns         735
_refine_ls_number_restraints     3
_refine_ls_R_factor_all          0.1082
_refine_ls_R_factor_gt           0.0325
_refine_ls_shift/su_max          0.0485
_refine_ls_shift/su_mean         0.0077
_refine_ls_structure_factor_coef F
_refine_ls_weighting_details     w=1/(\s^2^(F)+0.0001F^2^)
_refine_ls_weighting_scheme      sigma
_refine_ls_wR_factor_gt          0.0301
_refine_ls_wR_factor_ref         0.0410
_reflns_number_gt                279
_reflns_number_total             735
_reflns_threshold_expression     I>3\s(I)
_cod_data_source_file            dq5047sup1.cif
_cod_data_source_block           I
_cod_depositor_comments
;
The following automatic conversions were performed:

data item '_diffrn_radiation_probe' value 'X-ray' was changed to
'x-ray' in accordance with the
/home/data/users/saulius/crontab/automatic-downloads/rss-feeds/IUCr/lib/dictionaries/cif_core.dic
dictionary named 'cif_core.dic' version 2.4.2 last updated on
2011-04-26.

Automatic conversion script
Id: cif_fix_values 7556 2019-12-06 15:28:31Z antanas 
;
_cod_original_formula_sum        'Bi4 B O7 I'
_cod_database_code               2108691
loop_
_space_group_symop_id
_space_group_symop_operation_xyz
1 x,y,z
2 -x,-y,z
3 -x,y,-z
4 x,-y,-z
5 x+0.5,y+0.5,z+0.5
6 -x+0.5,-y+0.5,z+0.5
7 -x+0.5,y+0.5,-z+0.5
8 x+0.5,-y+0.5,-z+0.5
9 -x,-y,-z
10 x,y,-z
11 x,-y,z
12 -x,y,z
13 -x+0.5,-y+0.5,-z+0.5
14 x+0.5,y+0.5,-z+0.5
15 x+0.5,-y+0.5,z+0.5
16 -x+0.5,y+0.5,z+0.5
loop_
_space_group_symop_ssg_id
_space_group_symop_ssg_operation_algebraic
1 x1,x2,x3,x4
2 -x1,-x2,x3,x4
3 -x1,x2,-x3,-x4
4 x1,-x2,-x3,-x4
5 -x1,-x2,-x3,-x4
6 x1,x2,-x3,-x4
7 x1,-x2,x3,x4
8 -x1,x2,x3,x4
9 x1+1/2,x2+1/2,x3+1/2,x4
10 -x1+1/2,-x2+1/2,x3+1/2,x4
11 -x1+1/2,x2+1/2,-x3+1/2,-x4
12 x1+1/2,-x2+1/2,-x3+1/2,-x4
13 -x1+1/2,-x2+1/2,-x3+1/2,-x4
14 x1+1/2,x2+1/2,-x3+1/2,-x4
15 x1+1/2,-x2+1/2,x3+1/2,x4
16 -x1+1/2,x2+1/2,x3+1/2,x4
loop_
_atom_site_label
_atom_site_type_symbol
_atom_site_fract_x
_atom_site_fract_y
_atom_site_fract_z
_atom_site_adp_type
_atom_site_U_iso_or_equiv
_atom_site_site_symmetry_multiplicity
_atom_site_occupancy
_atom_site_calc_flag
_atom_site_refinement_flags
_atom_site_disorder_assembly
_atom_site_disorder_group
Bi Bi 0.5 0.15756(5) 0.5 Uani 0.0296(2) 4 1 d . . .
I I 0 0 0 Uani 0.0206(7) 2 0.5 d . . .
B B 0 0 0 Uani 0.0206(7) 2 0.5 d . . .
O1 O 0 0.2489(7) 0.5 Uani 0.017(3) 4 1 d . . .
O2 O 0 -0.0931(19) -0.102(9) Uiso 0.023(11) 8 0.125 d . . .
O3 O 0.120(10) 0 0.682(7) Uiso 0.076(16) 8 0.125 d . . .
O4 O 0.259(11) -0.060(4) 0 Uiso 0.10(2) 8 0.125 d . . .
loop_
_atom_site_aniso_label
_atom_site_aniso_type_symbol
_atom_site_aniso_U_11
_atom_site_aniso_U_22
_atom_site_aniso_U_33
_atom_site_aniso_U_12
_atom_site_aniso_U_13
_atom_site_aniso_U_23
Bi Bi 0.0327(4) 0.0239(4) 0.0324(5) 0 0 0
I I 0.0180(12) 0.0220(14) 0.0216(11) 0 0 0
B B 0.0180(12) 0.0220(14) 0.0216(11) 0 0 0
O1 O 0.016(4) 0.021(5) 0.015(5) 0 0 0
loop_
_atom_site_displace_Fourier_atom_site_label
_atom_site_displace_Fourier_axis
_atom_site_displace_Fourier_wave_vector_seq_id
_atom_site_displace_Fourier_param_cos
_atom_site_displace_Fourier_param_sin
Bi x 1 0 0
Bi y 1 0.00708(9) 0
Bi z 1 0 0.0511(3)
Bi x 2 0 0
Bi y 2 0.00010(11) 0
Bi z 2 0 0.0032(5)
I x 0 0 0
I y 0 0 0
I z 0 0 0
I x 1 0 0
I y 1 0 0
I z 1 0 0.0167(5)
O1 x 1 0 0
O1 y 1 -0.0006(12) 0
O1 z 1 0 -0.010(3)
O1 x 2 0 0
O1 y 2 -0.0023(15) 0
O1 z 2 0 -0.006(3)
loop_
_atom_site_displace_special_func_atom_site_label
_atom_site_displace_special_func_sawtooth_ax
_atom_site_displace_special_func_sawtooth_ay
_atom_site_displace_special_func_sawtooth_az
_atom_site_displace_special_func_sawtooth_c
_atom_site_displace_special_func_sawtooth_w
? ? ? ? ? ?
loop_
_atom_site_Fourier_wave_vector_seq_id
_jana_atom_site_fourier_wave_vector_q1_coeff
0 0
1 1
2 2
3 3
loop_
_atom_site_occ_Fourier_atom_site_label
_atom_site_occ_Fourier_wave_vector_seq_id
_atom_site_occ_Fourier_param_cos
_atom_site_occ_Fourier_param_sin
? ? ? ?
loop_
_atom_site_occ_special_func_atom_site_label
_atom_site_occ_special_func_crenel_c
_atom_site_occ_special_func_crenel_w
I 0 0.5
B 0.5 0.5
O2 0.476(2) 0.5
O3 0.5488 0.25
O4 0.5 0.5
loop_
_atom_site_U_Fourier_atom_site_label
_atom_site_U_Fourier_tens_elem
_atom_site_U_Fourier_wave_vector_seq_id
_atom_site_U_Fourier_param_cos
_atom_site_U_Fourier_param_sin
Bi U11 1 -0.0147(6) 0
Bi U22 1 -0.0074(5) 0
Bi U33 1 -0.0203(7) 0
Bi U12 1 0 0
Bi U13 1 0 0
Bi U23 1 0 -0.0068(5)
Bi U11 2 -0.0029(7) 0
Bi U22 2 -0.0039(8) 0
Bi U33 2 0.0142(8) 0
Bi U12 2 0 0
Bi U13 2 0 0
Bi U23 2 0 -0.0077(6)
Bi U11 3 0 0
Bi U22 3 0 0
Bi U33 3 -0.0109(18) 0
Bi U12 3 0 0
Bi U13 3 0 0
Bi U23 3 0 0
I U11 0 -0.0465 0
I U22 0 -0.0586 0
I U33 0 -0.0286 0
I U12 0 0 0
I U13 0 0 0
I U23 0 0 0
I U11 1 0.0731(17) 0
I U22 1 0.0921(18) 0
I U33 1 0.0449(14) 0
I U12 1 0 0
I U13 1 0 0
I U23 1 0 0
O1 U11 1 0.011(9) 0
O1 U22 1 -0.013(9) 0
O1 U33 1 -0.013(7) 0
O1 U12 1 0 0
O1 U13 1 0 0
O1 U23 1 0 -0.001(7)
loop_
_atom_type_symbol
_atom_type_scat_dispersion_real
_atom_type_scat_dispersion_imag
_atom_type_scat_source
B 0.0013 0.0007 'International Tables Vol C tables 4.2.6.8 and 6.1.1.1'
Bi -4.1077 10.2566 'International Tables Vol C tables 4.2.6.8 and 6.1.1.1'
I -0.4742 1.8119 'International Tables Vol C tables 4.2.6.8 and 6.1.1.1'
O 0.0106 0.0060 'International Tables Vol C tables 4.2.6.8 and 6.1.1.1'
loop_
_cell_wave_vector_seq_id
_cell_wave_vector_x
_cell_wave_vector_y
_cell_wave_vector_z
1 0.000000 0.000000 0.242000
loop_
_diffrn_standard_refln_index_h
_diffrn_standard_refln_index_k
_diffrn_standard_refln_index_l
? ? ?
loop_
_exptl_crystal_face_index_h
_exptl_crystal_face_index_k
_exptl_crystal_face_index_l
_exptl_crystal_face_perp_dist
? ? ? ?
loop_
_geom_angle_atom_site_label_1
_geom_angle_atom_site_label_2
_geom_angle_atom_site_label_3
_geom_angle_site_ssg_symmetry_1
_geom_angle_site_ssg_symmetry_2
_geom_angle_site_ssg_symmetry_3
_geom_angle_av
_geom_angle_min
_geom_angle_max
_geom_angle_publ_flag
Bi Bi Bi 1_4545 . 1_4555 45.07(5) 43.18(5) 47.19(5) ?
Bi Bi Bi 1_4545 . 1_4565 90.09(5) 87.15(5) 93.00(5) ?
Bi Bi Bi 1_4545 . 1_5545 44.93(3) 42.81(3) 46.82(3) ?
Bi Bi Bi 1_4545 . 1_5565 135.04(3) 133.14(3) 137.16(3) ?
Bi Bi Bi 1_4545 . 1_6545 89.87(5) 85.62(6) 93.65(6) ?
Bi Bi Bi 1_4545 . 1_6555 134.93(6) 132.81(7) 136.82(8) ?
Bi Bi Bi 1_4545 . 1_6565 177.66(4) 177.13(3) 178.16(6) ?
Bi Bi Bi 1_4545 . 2_5555 61.16(4) 59.45(4) 62.98(4) ?
Bi Bi Bi 1_4545 . 2_6545 61.07(3) 58.92(3) 63.12(3) ?
Bi Bi Bi 1_4545 . 2_6555 90.00(4) 88.65(4) 91.35(4) ?
Bi Bi Bi 1_4545 . 2_6565 118.91(4) 117.65(3) 120.11(3) ?
Bi Bi Bi 1_4545 . 2_7555 118.83(5) 116.51(5) 121.19(5) ?
Bi Bi Bi 1_4545 . 10_5545 41.53(4) 38.55(3) 44.35(4) ?
Bi Bi Bi 1_4545 . 10_5555 90.10(5) 87.03(5) 93.47(5) ?
Bi Bi Bi 1_4545 . 10_6545 89.83(6) 86.57(6) 92.70(6) ?
Bi Bi Bi 1_4545 . 10_6555 138.43(5) 134.24(4) 142.93(5) ?
Bi Bi I 1_4545 . . 37.05(3) 36.91(3) 37.27(3) ?
Bi Bi I 1_4545 . 1_5565 90.60(5) 89.34(5) 91.19(5) ?
Bi Bi I 1_4545 . 1_6555 87.90(6) 86.50(6) 90.27(7) ?
Bi Bi I 1_4545 . 1_6565 142.03(5) 141.01(7) 144.05(4) ?
Bi Bi I 1_4545 . 9_5555 90.58(4) 87.83(4) 92.45(4) ?
Bi Bi B 1_4545 . . 37.17(3) 36.71(3) 37.78(3) ?
Bi Bi B 1_4545 . 1_5565 89.47(4) 89.18(4) 90.02(4) ?
Bi Bi B 1_4545 . 1_6555 91.94(5) 89.28(6) 93.09(5) ?
Bi Bi B 1_4545 . 1_6565 143.57(5) 140.80(4) 145.04(7) ?
Bi Bi O1 1_4545 . . 53.1(6) 48.5(6) 58.5(6) ?
Bi Bi O1 1_4545 . 1_6555 126.8(6) 119.5(6) 133.9(6) ?
Bi Bi O1 1_4545 . 10_5545 53.32(19) 50.12(16) 56.6(2) ?
Bi Bi O1 1_4545 . 10_5555 126.59(19) 123.7(2) 129.01(19) ?
Bi Bi O2 1_4545 . 9_5555 84.6(4) 81.6(4) 88.5(4) ?
Bi Bi O2 1_4545 . 2_5555 16.2(4) 15.8(4) 16.9(4) ?
Bi Bi O2 1_4545 . 2_5565 82.6(6) 81.8(6) 84.2(5) ?
Bi Bi O2 1_4545 . 2_6555 87.1(4) 84.0(4) 88.4(4) ?
Bi Bi O2 1_4545 . 2_6565 160.5(6) 156.3(6) 163.3(6) ?
Bi Bi O2 1_4545 . 11_5555 94.0(4) 91.4(4) 97.9(4) ?
Bi Bi O2 1_4545 . 4_5555 19.6(6) 18.6(6) 21.6(6) ?
Bi Bi O2 1_4545 . 4_5565 94.3(4) 93.8(4) 95.4(4) ?
Bi Bi O2 1_4545 . 4_6555 98.8(6) 94.5(6) 100.7(6) ?
Bi Bi O2 1_4545 . 4_6565 164.8(4) 162.7(5) 165.9(4) ?
Bi Bi O3 1_4545 . . 77.7(7) 76.7(7) 78.9(7) ?
Bi Bi O3 1_4545 . 1_6555 134.8(4) 132.8(4) 135.8(4) ?
Bi Bi O3 1_4545 . 2_5555 67.6(5) 66.9(5) 68.6(5) ?
Bi Bi O3 1_4545 . 2_6555 127.8(6) 126.0(6) 128.7(5) ?
Bi Bi O3 1_4545 . 3_5565 46.6(4) 46.2(4) 47.4(4) ?
Bi Bi O3 1_4545 . 3_6565 103.4(7) 100.9(7) 105.2(7) ?
Bi Bi O3 1_4545 . 4_5565 53.7(6) 52.9(5) 54.7(6) ?
Bi Bi O3 1_4545 . 4_6565 113.4(5) 110.9(5) 115.1(5) ?
Bi Bi O4 1_4545 . . 56.1(7) 55.2(7) 56.4(7) ?
Bi Bi O4 1_4545 . 1_5565 101.3(6) 101.0(5) 101.7(6) ?
Bi Bi O4 1_4545 . 2_5555 22.7(7) 21.9(7) 24.0(6) ?
Bi Bi O4 1_4545 . 2_5565 78.3(4) 77.7(4) 79.3(4) ?
Bi Bi O4 1_4545 . 2_6555 75.4(9) 72.6(9) 76.7(9) ?
Bi Bi O4 1_4545 . 2_6565 145.3(11) 143.5(11) 146.1(11) ?
Bi Bi O4 1_4545 . 3_6555 80.0(6) 78.3(6) 80.8(6) ?
Bi Bi O4 1_4545 . 3_6565 125.0(7) 123.2(6) 125.9(7) ?
Bi Bi O4 1_4545 . 4_5555 35.9(11) 35.6(11) 36.3(11) ?
Bi Bi O4 1_4545 . 4_5565 106.0(9) 105.7(9) 106.5(9) ?
Bi Bi O4 1_4545 . 4_6555 103.1(4) 99.8(4) 104.5(4) ?
Bi Bi O4 1_4545 . 4_6565 157.4(6) 153.7(6) 159.9(7) ?
Bi Bi Bi 1_4555 . 1_4565 45.04(4) 43.18(5) 47.19(5) ?
Bi Bi Bi 1_4555 . 1_5545 90.00(3) 90.00(5) 90.00(5) ?
Bi Bi Bi 1_4555 . 1_5565 90.00(3) 90.00(5) 90.00(5) ?
Bi Bi Bi 1_4555 . 1_6545 134.93(5) 132.81(7) 136.82(7) ?
Bi Bi Bi 1_4555 . 1_6555 180 180 180 ?
Bi Bi Bi 1_4555 . 1_6565 134.96(5) 132.81(7) 136.82(7) ?
Bi Bi Bi 1_4555 . 2_5555 46.95(3) 45.66(5) 48.23(5) ?
Bi Bi Bi 1_4555 . 2_6545 90.00(3) 90.00(4) 90.00(4) ?
Bi Bi Bi 1_4555 . 2_6555 90.00(3) 90.000(18) 90.000(18) ?
Bi Bi Bi 1_4555 . 2_6565 90.00(3) 90.00(4) 90.00(4) ?
Bi Bi Bi 1_4555 . 2_7555 133.05(5) 131.77(7) 134.34(8) ?
Bi Bi Bi 1_4555 . 10_5545 58.14(3) 57.89(3) 58.60(3) ?
Bi Bi Bi 1_4555 . 10_5555 58.14(3) 57.89(4) 58.60(3) ?
Bi Bi Bi 1_4555 . 10_6545 121.86(5) 121.40(5) 122.11(5) ?
Bi Bi Bi 1_4555 . 10_6555 121.86(5) 121.40(5) 122.11(5) ?
Bi Bi I 1_4555 . . 56.55(4) 55.59(4) 57.09(4) ?
Bi Bi I 1_4555 . 1_5565 56.54(4) 55.66(4) 57.09(4) ?
Bi Bi I 1_4555 . 1_6555 123.45(5) 122.91(6) 124.41(6) ?
Bi Bi I 1_4555 . 1_6565 123.46(5) 122.91(6) 124.34(5) ?
Bi Bi I 1_4555 . 9_5555 90.00(3) 90.000(18) 90.000(18) ?
Bi Bi B 1_4555 . . 54.88(3) 54.32(3) 56.15(3) ?
Bi Bi B 1_4555 . 1_5565 54.85(3) 54.32(3) 56.08(3) ?
Bi Bi B 1_4555 . 1_6555 125.12(5) 123.85(6) 125.68(5) ?
Bi Bi B 1_4555 . 1_6565 125.15(5) 123.92(5) 125.68(5) ?
Bi Bi O1 1_4555 . . 32.0(2) 28.9(2) 33.50(19) ?
Bi Bi O1 1_4555 . 1_6555 148.0(2) 146.50(19) 151.1(2) ?
Bi Bi O1 1_4555 . 10_5545 90.00(3) 90.00(5) 90.00(5) ?
Bi Bi O1 1_4555 . 10_5555 90.00(3) 90.00(4) 90.00(4) ?
Bi Bi O2 1_4555 . 9_5555 90.00(3) 90.00(3) 90.00(3) ?
Bi Bi O2 1_4555 . 2_5555 51.0(4) 49.9(4) 53.1(4) ?
Bi Bi O2 1_4555 . 2_5565 40.7(5) 39.4(6) 43.6(5) ?
Bi Bi O2 1_4555 . 2_6555 129.0(4) 126.9(4) 130.1(4) ?
Bi Bi O2 1_4555 . 2_6565 139.3(5) 136.4(5) 140.6(6) ?
Bi Bi O2 1_4555 . 11_5555 90.00(3) 90.00(3) 90.00(3) ?
Bi Bi O2 1_4555 . 4_5555 40.7(5) 39.4(6) 43.7(5) ?
Bi Bi O2 1_4555 . 4_5565 51.0(4) 49.9(4) 53.2(4) ?
Bi Bi O2 1_4555 . 4_6555 139.3(5) 136.3(5) 140.6(6) ?
Bi Bi O2 1_4555 . 4_6565 129.0(4) 126.8(4) 130.1(4) ?
Bi Bi O3 1_4555 . . 55.1(7) 54.8(7) 55.9(7) ?
Bi Bi O3 1_4555 . 1_6555 138.6(5) 137.9(5) 139.0(5) ?
Bi Bi O3 1_4555 . 2_5555 41.4(5) 41.0(5) 42.1(5) ?
Bi Bi O3 1_4555 . 2_6555 124.9(7) 124.1(7) 125.2(7) ?
Bi Bi O3 1_4555 . 3_5565 41.4(5) 41.0(5) 42.2(5) ?
Bi Bi O3 1_4555 . 3_6565 124.8(7) 124.1(7) 125.2(7) ?
Bi Bi O3 1_4555 . 4_5565 55.2(7) 54.8(7) 55.9(7) ?
Bi Bi O3 1_4555 . 4_6565 138.6(5) 137.8(5) 139.0(5) ?
Bi Bi O4 1_4555 . . 74.5(7) 74.3(7) 75.0(7) ?
Bi Bi O4 1_4555 . 1_5565 74.5(7) 74.3(7) 75.0(7) ?
Bi Bi O4 1_4555 . 2_5555 37.2(5) 36.3(6) 39.3(5) ?
Bi Bi O4 1_4555 . 2_5565 37.2(5) 36.3(6) 39.2(5) ?
Bi Bi O4 1_4555 . 2_6555 112.7(10) 111.3(9) 113.4(10) ?
Bi Bi O4 1_4555 . 2_6565 112.8(10) 111.3(9) 113.4(10) ?
Bi Bi O4 1_4555 . 3_6555 105.5(7) 105.0(7) 105.7(7) ?
Bi Bi O4 1_4555 . 3_6565 105.5(7) 105.0(7) 105.7(7) ?
Bi Bi O4 1_4555 . 4_5555 67.3(10) 66.6(10) 68.7(9) ?
Bi Bi O4 1_4555 . 4_5565 67.2(10) 66.6(10) 68.7(9) ?
Bi Bi O4 1_4555 . 4_6555 142.8(5) 140.7(5) 143.7(6) ?
Bi Bi O4 1_4555 . 4_6565 142.8(5) 140.8(5) 143.7(6) ?
Bi Bi Bi 1_4565 . 1_5545 135.01(3) 133.15(3) 137.16(3) ?
Bi Bi Bi 1_4565 . 1_5565 44.96(3) 42.81(3) 46.82(3) ?
Bi Bi Bi 1_4565 . 1_6545 177.66(4) 177.13(3) 178.16(6) ?
Bi Bi Bi 1_4565 . 1_6555 134.96(6) 132.81(7) 136.82(8) ?
Bi Bi Bi 1_4565 . 1_6565 89.91(5) 85.62(6) 93.65(6) ?
Bi Bi Bi 1_4565 . 2_5555 61.14(4) 59.45(4) 62.98(4) ?
Bi Bi Bi 1_4565 . 2_6545 118.90(4) 117.65(3) 120.11(3) ?
Bi Bi Bi 1_4565 . 2_6555 89.99(4) 88.65(4) 91.35(4) ?
Bi Bi Bi 1_4565 . 2_6565 61.08(3) 58.92(3) 63.12(3) ?
Bi Bi Bi 1_4565 . 2_7555 118.83(5) 116.51(5) 121.19(5) ?
Bi Bi Bi 1_4565 . 10_5545 90.10(5) 87.03(5) 93.47(5) ?
Bi Bi Bi 1_4565 . 10_5555 41.56(4) 38.55(3) 44.35(4) ?
Bi Bi Bi 1_4565 . 10_6545 138.46(5) 134.24(4) 142.93(5) ?
Bi Bi Bi 1_4565 . 10_6555 89.87(6) 86.57(6) 92.70(6) ?
Bi Bi I 1_4565 . . 90.60(5) 89.33(5) 91.19(5) ?
Bi Bi I 1_4565 . 1_5565 37.05(3) 36.91(3) 37.27(3) ?
Bi Bi I 1_4565 . 1_6555 142.03(5) 141.01(6) 144.07(4) ?
Bi Bi I 1_4565 . 1_6565 87.92(6) 86.50(6) 90.11(6) ?
Bi Bi I 1_4565 . 9_5555 90.57(4) 87.80(4) 92.45(4) ?
Bi Bi B 1_4565 . . 89.48(4) 89.18(4) 90.06(4) ?
Bi Bi B 1_4565 . 1_5565 37.17(3) 36.71(3) 37.78(3) ?
Bi Bi B 1_4565 . 1_6555 143.58(5) 140.78(4) 145.04(7) ?
Bi Bi B 1_4565 . 1_6565 91.99(5) 89.44(6) 93.09(5) ?
Bi Bi O1 1_4565 . . 53.1(6) 48.5(6) 58.5(6) ?
Bi Bi O1 1_4565 . 1_6555 126.9(6) 119.5(6) 133.9(6) ?
Bi Bi O1 1_4565 . 10_5545 126.60(19) 123.7(2) 129.01(19) ?
Bi Bi O1 1_4565 . 10_5555 53.36(19) 50.12(16) 56.6(2) ?
Bi Bi O2 1_4565 . 9_5555 94.1(4) 91.4(4) 98.0(4) ?
Bi Bi O2 1_4565 . 2_5555 94.3(4) 93.8(4) 95.4(4) ?
Bi Bi O2 1_4565 . 2_5565 19.7(6) 18.6(6) 21.6(6) ?
Bi Bi O2 1_4565 . 2_6555 164.8(4) 162.6(5) 165.9(4) ?
Bi Bi O2 1_4565 . 2_6565 98.8(6) 94.7(6) 100.7(6) ?
Bi Bi O2 1_4565 . 11_5555 84.7(4) 81.6(4) 88.6(4) ?
Bi Bi O2 1_4565 . 4_5555 82.6(6) 81.8(6) 84.3(5) ?
Bi Bi O2 1_4565 . 4_5565 16.2(4) 15.8(4) 16.9(4) ?
Bi Bi O2 1_4565 . 4_6555 160.6(6) 156.3(6) 163.3(6) ?
Bi Bi O2 1_4565 . 4_6565 87.1(4) 83.9(4) 88.4(4) ?
Bi Bi O3 1_4565 . . 53.7(6) 52.9(5) 54.8(6) ?
Bi Bi O3 1_4565 . 1_6555 113.5(5) 111.1(5) 115.1(5) ?
Bi Bi O3 1_4565 . 2_5555 46.7(4) 46.2(4) 47.5(4) ?
Bi Bi O3 1_4565 . 2_6555 103.6(7) 101.1(7) 105.3(7) ?
Bi Bi O3 1_4565 . 3_5565 67.7(5) 67.0(5) 68.6(5) ?
Bi Bi O3 1_4565 . 3_6565 127.9(6) 126.2(6) 128.7(5) ?
Bi Bi O3 1_4565 . 4_5565 77.8(7) 76.8(7) 79.0(7) ?
Bi Bi O3 1_4565 . 4_6565 134.8(4) 133.0(4) 135.8(4) ?
Bi Bi O4 1_4565 . . 101.3(6) 101.0(5) 101.7(6) ?
Bi Bi O4 1_4565 . 1_5565 56.1(7) 55.3(7) 56.4(7) ?
Bi Bi O4 1_4565 . 2_5555 78.3(4) 77.7(4) 79.3(4) ?
Bi Bi O4 1_4565 . 2_5565 22.7(7) 21.9(7) 24.0(6) ?
Bi Bi O4 1_4565 . 2_6555 145.2(11) 143.5(11) 146.1(11) ?
Bi Bi O4 1_4565 . 2_6565 75.5(9) 72.7(9) 76.7(9) ?
Bi Bi O4 1_4565 . 3_6555 125.0(7) 123.2(6) 125.9(7) ?
Bi Bi O4 1_4565 . 3_6565 80.0(6) 78.4(6) 80.8(6) ?
Bi Bi O4 1_4565 . 4_5555 106.0(9) 105.7(9) 106.6(9) ?
Bi Bi O4 1_4565 . 4_5565 36.0(11) 35.6(11) 36.3(11) ?
Bi Bi O4 1_4565 . 4_6555 157.4(6) 153.7(6) 159.9(7) ?
Bi Bi O4 1_4565 . 4_6565 103.2(4) 100.0(4) 104.5(4) ?
Bi Bi Bi 1_5545 . 1_5565 178.33(5) 177.33(9) 180 ?
Bi Bi Bi 1_5545 . 1_6545 44.93(3) 42.81(3) 46.82(4) ?
Bi Bi Bi 1_5545 . 1_6555 90.00(5) 90.00(6) 90.00(6) ?
Bi Bi Bi 1_5545 . 1_6565 135.01(3) 133.15(4) 137.16(3) ?
Bi Bi Bi 1_5545 . 2_5555 89.99(4) 88.59(4) 91.37(4) ?
Bi Bi Bi 1_5545 . 2_6545 46.90(4) 44.81(4) 49.22(4) ?
Bi Bi Bi 1_5545 . 2_6555 90.00(6) 88.09(5) 91.91(6) ?
Bi Bi Bi 1_5545 . 2_6565 133.09(5) 132.38(5) 134.07(4) ?
Bi Bi Bi 1_5545 . 2_7555 89.99(4) 88.59(4) 91.37(4) ?
Bi Bi Bi 1_5545 . 10_5545 57.98(5) 54.99(5) 60.81(6) ?
Bi Bi Bi 1_5545 . 10_5555 121.97(6) 117.70(6) 126.62(5) ?
Bi Bi Bi 1_5545 . 10_6545 57.98(5) 54.99(5) 60.81(6) ?
Bi Bi Bi 1_5545 . 10_6555 121.97(6) 117.70(6) 126.62(5) ?
Bi Bi I 1_5545 . . 54.75(5) 54.08(5) 55.92(6) ?
Bi Bi I 1_5545 . 1_5565 124.34(6) 122.75(6) 125.67(6) ?
Bi Bi I 1_5545 . 1_6555 54.75(5) 54.08(5) 55.92(6) ?
Bi Bi I 1_5545 . 1_6565 124.34(6) 122.75(6) 125.67(6) ?
Bi Bi I 1_5545 . 9_5555 90.84(5) 87.01(6) 93.50(5) ?
Bi Bi B 1_5545 . . 56.54(3) 54.78(4) 57.41(4) ?
Bi Bi B 1_5545 . 1_5565 124.28(4) 121.82(4) 126.53(4) ?
Bi Bi B 1_5545 . 1_6555 56.54(3) 54.78(4) 57.41(4) ?
Bi Bi B 1_5545 . 1_6565 124.28(4) 121.82(4) 126.53(4) ?
Bi Bi O1 1_5545 . . 89.9(7) 83.3(7) 97.1(7) ?
Bi Bi O1 1_5545 . 1_6555 89.9(7) 83.3(7) 97.1(7) ?
Bi Bi O1 1_5545 . 10_5545 32.4(4) 28.0(3) 36.7(4) ?
Bi Bi O1 1_5545 . 10_5555 147.5(4) 142.1(4) 152.3(3) ?
Bi Bi O2 1_5545 . 9_5555 82.3(6) 78.3(6) 87.8(6) ?
Bi Bi O2 1_5545 . 2_5555 43.0(5) 41.1(4) 44.1(5) ?
Bi Bi O2 1_5545 . 2_5565 125.2(6) 122.7(7) 128.6(6) ?
Bi Bi O2 1_5545 . 2_6555 43.0(5) 41.1(4) 44.1(5) ?
Bi Bi O2 1_5545 . 2_6565 125.2(6) 122.7(7) 128.6(6) ?
Bi Bi O2 1_5545 . 11_5555 95.9(6) 92.0(6) 101.6(6) ?
Bi Bi O2 1_5545 . 4_5555 55.2(6) 52.0(6) 57.0(7) ?
Bi Bi O2 1_5545 . 4_5565 137.4(4) 135.5(5) 139.7(4) ?
Bi Bi O2 1_5545 . 4_6555 55.2(6) 52.0(6) 57.0(7) ?
Bi Bi O2 1_5545 . 4_6565 137.4(4) 135.5(5) 139.7(4) ?
Bi Bi O3 1_5545 . . 106.9(6) 104.7(6) 108.5(6) ?
Bi Bi O3 1_5545 . 1_6555 103.5(5) 101.8(5) 104.9(5) ?
Bi Bi O3 1_5545 . 2_5555 103.5(5) 101.8(5) 104.9(5) ?
Bi Bi O3 1_5545 . 2_6555 106.9(6) 104.7(6) 108.5(6) ?
Bi Bi O3 1_5545 . 3_5565 77.9(5) 76.3(5) 79.4(5) ?
Bi Bi O3 1_5545 . 3_6565 74.9(6) 73.0(6) 76.7(6) ?
Bi Bi O3 1_5545 . 4_5565 74.9(6) 73.0(6) 76.7(6) ?
Bi Bi O3 1_5545 . 4_6565 77.9(5) 76.3(5) 79.4(5) ?
Bi Bi O4 1_5545 . . 58.1(4) 56.8(5) 58.6(4) ?
Bi Bi O4 1_5545 . 1_5565 123.0(4) 120.2(4) 125.1(5) ?
Bi Bi O4 1_5545 . 2_5555 59.8(4) 57.6(4) 60.9(3) ?
Bi Bi O4 1_5545 . 2_5565 120.6(4) 118.8(3) 123.0(4) ?
Bi Bi O4 1_5545 . 2_6555 39.9(9) 38.0(9) 41.2(9) ?
Bi Bi O4 1_5545 . 2_6565 141.0(9) 137.6(9) 143.5(9) ?
Bi Bi O4 1_5545 . 3_6555 58.1(4) 56.8(5) 58.6(4) ?
Bi Bi O4 1_5545 . 3_6565 123.0(4) 120.2(4) 125.1(5) ?
Bi Bi O4 1_5545 . 4_5555 39.9(9) 38.0(9) 41.2(9) ?
Bi Bi O4 1_5545 . 4_5565 141.0(9) 137.6(9) 143.5(9) ?
Bi Bi O4 1_5545 . 4_6555 59.8(4) 57.6(4) 60.9(3) ?
Bi Bi O4 1_5545 . 4_6565 120.6(4) 118.8(3) 123.0(4) ?
Bi Bi Bi 1_5565 . 1_6545 135.04(3) 133.14(4) 137.16(3) ?
Bi Bi Bi 1_5565 . 1_6555 90.00(5) 90.00(6) 90.00(6) ?
Bi Bi Bi 1_5565 . 1_6565 44.96(3) 42.81(3) 46.82(4) ?
Bi Bi Bi 1_5565 . 2_5555 89.98(4) 88.59(4) 91.37(4) ?
Bi Bi Bi 1_5565 . 2_6545 133.08(5) 132.38(5) 134.07(4) ?
Bi Bi Bi 1_5565 . 2_6555 89.98(6) 88.09(5) 91.91(6) ?
Bi Bi Bi 1_5565 . 2_6565 46.90(4) 44.81(4) 49.22(4) ?
Bi Bi Bi 1_5565 . 2_7555 89.98(4) 88.59(4) 91.37(4) ?
Bi Bi Bi 1_5565 . 10_5545 122.01(6) 117.70(6) 126.62(5) ?
Bi Bi Bi 1_5565 . 10_5555 58.02(5) 54.99(5) 60.81(6) ?
Bi Bi Bi 1_5565 . 10_6545 122.01(6) 117.70(6) 126.62(5) ?
Bi Bi Bi 1_5565 . 10_6555 58.02(5) 54.99(5) 60.81(6) ?
Bi Bi I 1_5565 . . 124.36(6) 122.74(6) 125.67(6) ?
Bi Bi I 1_5565 . 1_5565 54.76(5) 54.08(5) 55.85(5) ?
Bi Bi I 1_5565 . 1_6555 124.36(6) 122.74(6) 125.67(6) ?
Bi Bi I 1_5565 . 1_6565 54.76(5) 54.08(5) 55.85(5) ?
Bi Bi I 1_5565 . 9_5555 90.83(5) 86.96(6) 93.50(5) ?
Bi Bi B 1_5565 . . 124.30(4) 121.82(4) 126.53(4) ?
Bi Bi B 1_5565 . 1_5565 56.57(3) 54.85(4) 57.41(4) ?
Bi Bi B 1_5565 . 1_6555 124.30(4) 121.82(4) 126.53(4) ?
Bi Bi B 1_5565 . 1_6565 56.57(3) 54.85(4) 57.41(4) ?
Bi Bi O1 1_5565 . . 90.0(7) 83.3(7) 97.1(7) ?
Bi Bi O1 1_5565 . 1_6555 90.0(7) 83.3(7) 97.1(7) ?
Bi Bi O1 1_5565 . 10_5545 147.6(4) 142.1(4) 152.3(3) ?
Bi Bi O1 1_5565 . 10_5555 32.5(4) 28.0(3) 36.7(4) ?
Bi Bi O2 1_5565 . 9_5555 96.0(6) 92.0(6) 101.7(6) ?
Bi Bi O2 1_5565 . 2_5555 137.4(4) 135.5(5) 139.7(4) ?
Bi Bi O2 1_5565 . 2_5565 55.3(6) 52.1(6) 57.0(7) ?
Bi Bi O2 1_5565 . 2_6555 137.4(4) 135.5(5) 139.7(4) ?
Bi Bi O2 1_5565 . 2_6565 55.3(6) 52.1(6) 57.0(7) ?
Bi Bi O2 1_5565 . 11_5555 82.5(6) 78.3(6) 87.9(6) ?
Bi Bi O2 1_5565 . 4_5555 125.2(6) 122.7(7) 128.7(6) ?
Bi Bi O2 1_5565 . 4_5565 43.0(5) 41.0(4) 44.1(5) ?
Bi Bi O2 1_5565 . 4_6555 125.2(6) 122.7(7) 128.7(6) ?
Bi Bi O2 1_5565 . 4_6565 43.0(5) 41.0(4) 44.1(5) ?
Bi Bi O3 1_5565 . . 75.0(6) 73.1(6) 76.8(6) ?
Bi Bi O3 1_5565 . 1_6555 78.0(5) 76.4(5) 79.5(5) ?
Bi Bi O3 1_5565 . 2_5555 78.0(5) 76.4(5) 79.5(5) ?
Bi Bi O3 1_5565 . 2_6555 75.0(6) 73.1(6) 76.8(6) ?
Bi Bi O3 1_5565 . 3_5565 103.6(5) 101.9(5) 104.9(5) ?
Bi Bi O3 1_5565 . 3_6565 107.0(6) 104.9(6) 108.5(6) ?
Bi Bi O3 1_5565 . 4_5565 107.0(6) 104.9(6) 108.5(6) ?
Bi Bi O3 1_5565 . 4_6565 103.6(5) 101.9(5) 104.9(5) ?
Bi Bi O4 1_5565 . . 123.1(4) 120.2(4) 125.1(5) ?
Bi Bi O4 1_5565 . 1_5565 58.1(4) 56.8(5) 58.6(4) ?
Bi Bi O4 1_5565 . 2_5555 120.6(4) 118.8(3) 123.1(4) ?
Bi Bi O4 1_5565 . 2_5565 59.8(4) 57.7(4) 60.9(3) ?
Bi Bi O4 1_5565 . 2_6555 141.0(9) 137.6(9) 143.5(9) ?
Bi Bi O4 1_5565 . 2_6565 40.0(9) 38.1(9) 41.2(9) ?
Bi Bi O4 1_5565 . 3_6555 123.1(4) 120.2(4) 125.1(5) ?
Bi Bi O4 1_5565 . 3_6565 58.1(4) 56.8(5) 58.6(4) ?
Bi Bi O4 1_5565 . 4_5555 141.0(9) 137.6(9) 143.5(9) ?
Bi Bi O4 1_5565 . 4_5565 40.0(9) 38.1(9) 41.2(9) ?
Bi Bi O4 1_5565 . 4_6555 120.6(4) 118.8(3) 123.1(4) ?
Bi Bi O4 1_5565 . 4_6565 59.8(4) 57.7(4) 60.9(3) ?
Bi Bi Bi 1_6545 . 1_6555 45.07(5) 43.18(5) 47.19(5) ?
Bi Bi Bi 1_6545 . 1_6565 90.09(5) 87.15(5) 93.00(5) ?
Bi Bi Bi 1_6545 . 2_5555 118.83(5) 116.51(5) 121.19(5) ?
Bi Bi Bi 1_6545 . 2_6545 61.07(3) 58.92(3) 63.12(3) ?
Bi Bi Bi 1_6545 . 2_6555 90.00(4) 88.65(4) 91.35(4) ?
Bi Bi Bi 1_6545 . 2_6565 118.91(4) 117.65(3) 120.11(3) ?
Bi Bi Bi 1_6545 . 2_7555 61.16(4) 59.45(4) 62.98(4) ?
Bi Bi Bi 1_6545 . 10_5545 89.83(6) 86.57(6) 92.70(6) ?
Bi Bi Bi 1_6545 . 10_5555 138.43(5) 134.24(4) 142.93(5) ?
Bi Bi Bi 1_6545 . 10_6545 41.53(4) 38.55(3) 44.35(4) ?
Bi Bi Bi 1_6545 . 10_6555 90.10(5) 87.03(5) 93.47(5) ?
Bi Bi I 1_6545 . . 87.90(6) 86.50(6) 90.27(7) ?
Bi Bi I 1_6545 . 1_5565 142.03(5) 141.01(7) 144.05(4) ?
Bi Bi I 1_6545 . 1_6555 37.05(3) 36.91(3) 37.27(3) ?
Bi Bi I 1_6545 . 1_6565 90.60(5) 89.34(5) 91.19(5) ?
Bi Bi I 1_6545 . 9_5555 90.58(4) 87.83(4) 92.45(4) ?
Bi Bi B 1_6545 . . 91.94(5) 89.28(6) 93.09(5) ?
Bi Bi B 1_6545 . 1_5565 143.57(5) 140.80(4) 145.04(7) ?
Bi Bi B 1_6545 . 1_6555 37.17(3) 36.71(3) 37.78(3) ?
Bi Bi B 1_6545 . 1_6565 89.47(4) 89.18(4) 90.02(4) ?
Bi Bi O1 1_6545 . . 126.8(6) 119.5(6) 133.9(6) ?
Bi Bi O1 1_6545 . 1_6555 53.1(6) 48.5(6) 58.5(6) ?
Bi Bi O1 1_6545 . 10_5545 53.32(19) 50.12(16) 56.6(2) ?
Bi Bi O1 1_6545 . 10_5555 126.59(19) 123.7(2) 129.01(19) ?
Bi Bi O2 1_6545 . 9_5555 84.6(4) 81.6(4) 88.5(4) ?
Bi Bi O2 1_6545 . 2_5555 87.1(4) 84.0(4) 88.4(4) ?
Bi Bi O2 1_6545 . 2_5565 160.5(6) 156.3(6) 163.3(6) ?
Bi Bi O2 1_6545 . 2_6555 16.2(4) 15.8(4) 16.9(4) ?
Bi Bi O2 1_6545 . 2_6565 82.6(6) 81.8(6) 84.2(5) ?
Bi Bi O2 1_6545 . 11_5555 94.0(4) 91.4(4) 97.9(4) ?
Bi Bi O2 1_6545 . 4_5555 98.8(6) 94.5(6) 100.7(6) ?
Bi Bi O2 1_6545 . 4_5565 164.8(4) 162.7(5) 165.9(4) ?
Bi Bi O2 1_6545 . 4_6555 19.6(6) 18.6(6) 21.6(6) ?
Bi Bi O2 1_6545 . 4_6565 94.3(4) 93.8(4) 95.4(4) ?
Bi Bi O3 1_6545 . . 127.8(6) 126.0(6) 128.7(5) ?
Bi Bi O3 1_6545 . 1_6555 67.6(5) 66.9(5) 68.6(5) ?
Bi Bi O3 1_6545 . 2_5555 134.8(4) 132.8(4) 135.8(4) ?
Bi Bi O3 1_6545 . 2_6555 77.7(7) 76.7(7) 78.9(7) ?
Bi Bi O3 1_6545 . 3_5565 113.4(5) 110.9(5) 115.1(5) ?
Bi Bi O3 1_6545 . 3_6565 53.7(6) 52.9(5) 54.7(6) ?
Bi Bi O3 1_6545 . 4_5565 103.4(7) 100.9(7) 105.2(7) ?
Bi Bi O3 1_6545 . 4_6565 46.6(4) 46.2(4) 47.4(4) ?
Bi Bi O4 1_6545 . . 80.0(6) 78.3(6) 80.8(6) ?
Bi Bi O4 1_6545 . 1_5565 125.0(7) 123.2(6) 125.9(7) ?
Bi Bi O4 1_6545 . 2_5555 103.1(4) 99.8(4) 104.5(4) ?
Bi Bi O4 1_6545 . 2_5565 157.4(6) 153.7(6) 159.9(7) ?
Bi Bi O4 1_6545 . 2_6555 35.9(11) 35.6(11) 36.3(11) ?
Bi Bi O4 1_6545 . 2_6565 106.0(9) 105.7(9) 106.5(9) ?
Bi Bi O4 1_6545 . 3_6555 56.1(7) 55.2(7) 56.4(7) ?
Bi Bi O4 1_6545 . 3_6565 101.3(6) 101.0(5) 101.7(6) ?
Bi Bi O4 1_6545 . 4_5555 75.4(9) 72.6(9) 76.7(9) ?
Bi Bi O4 1_6545 . 4_5565 145.3(11) 143.5(11) 146.1(11) ?
Bi Bi O4 1_6545 . 4_6555 22.7(7) 21.9(7) 24.0(6) ?
Bi Bi O4 1_6545 . 4_6565 78.3(4) 77.7(4) 79.3(4) ?
Bi Bi Bi 1_6555 . 1_6565 45.04(4) 43.18(5) 47.19(5) ?
Bi Bi Bi 1_6555 . 2_5555 133.05(5) 131.77(7) 134.34(8) ?
Bi Bi Bi 1_6555 . 2_6545 90.00(3) 90.00(4) 90.00(4) ?
Bi Bi Bi 1_6555 . 2_6555 90.00(3) 90.000(18) 90.000(18) ?
Bi Bi Bi 1_6555 . 2_6565 90.00(3) 90.00(4) 90.00(4) ?
Bi Bi Bi 1_6555 . 2_7555 46.95(3) 45.66(5) 48.23(5) ?
Bi Bi Bi 1_6555 . 10_5545 121.86(5) 121.40(5) 122.11(5) ?
Bi Bi Bi 1_6555 . 10_5555 121.86(5) 121.40(5) 122.11(5) ?
Bi Bi Bi 1_6555 . 10_6545 58.14(3) 57.89(3) 58.60(3) ?
Bi Bi Bi 1_6555 . 10_6555 58.14(3) 57.89(4) 58.60(3) ?
Bi Bi I 1_6555 . . 123.45(5) 122.91(6) 124.41(6) ?
Bi Bi I 1_6555 . 1_5565 123.46(5) 122.91(6) 124.34(5) ?
Bi Bi I 1_6555 . 1_6555 56.55(4) 55.59(4) 57.09(4) ?
Bi Bi I 1_6555 . 1_6565 56.54(4) 55.66(4) 57.09(4) ?
Bi Bi I 1_6555 . 9_5555 90.00(3) 90.000(18) 90.000(18) ?
Bi Bi B 1_6555 . . 125.12(5) 123.85(6) 125.68(5) ?
Bi Bi B 1_6555 . 1_5565 125.15(5) 123.92(5) 125.68(5) ?
Bi Bi B 1_6555 . 1_6555 54.88(3) 54.32(3) 56.15(3) ?
Bi Bi B 1_6555 . 1_6565 54.85(3) 54.32(3) 56.08(3) ?
Bi Bi O1 1_6555 . . 148.0(2) 146.50(19) 151.1(2) ?
Bi Bi O1 1_6555 . 1_6555 32.0(2) 28.9(2) 33.50(19) ?
Bi Bi O1 1_6555 . 10_5545 90.00(3) 90.00(5) 90.00(5) ?
Bi Bi O1 1_6555 . 10_5555 90.00(3) 90.00(4) 90.00(4) ?
Bi Bi O2 1_6555 . 9_5555 90.00(3) 90.00(3) 90.00(3) ?
Bi Bi O2 1_6555 . 2_5555 129.0(4) 126.9(4) 130.1(4) ?
Bi Bi O2 1_6555 . 2_5565 139.3(5) 136.4(5) 140.6(6) ?
Bi Bi O2 1_6555 . 2_6555 51.0(4) 49.9(4) 53.1(4) ?
Bi Bi O2 1_6555 . 2_6565 40.7(5) 39.4(6) 43.6(5) ?
Bi Bi O2 1_6555 . 11_5555 90.00(3) 90.00(3) 90.00(3) ?
Bi Bi O2 1_6555 . 4_5555 139.3(5) 136.3(5) 140.6(6) ?
Bi Bi O2 1_6555 . 4_5565 129.0(4) 126.8(4) 130.1(4) ?
Bi Bi O2 1_6555 . 4_6555 40.7(5) 39.4(6) 43.7(5) ?
Bi Bi O2 1_6555 . 4_6565 51.0(4) 49.9(4) 53.2(4) ?
Bi Bi O3 1_6555 . . 124.9(7) 124.1(7) 125.2(7) ?
Bi Bi O3 1_6555 . 1_6555 41.4(5) 41.0(5) 42.1(5) ?
Bi Bi O3 1_6555 . 2_5555 138.6(5) 137.9(5) 139.0(5) ?
Bi Bi O3 1_6555 . 2_6555 55.1(7) 54.8(7) 55.9(7) ?
Bi Bi O3 1_6555 . 3_5565 138.6(5) 137.8(5) 139.0(5) ?
Bi Bi O3 1_6555 . 3_6565 55.2(7) 54.8(7) 55.9(7) ?
Bi Bi O3 1_6555 . 4_5565 124.8(7) 124.1(7) 125.2(7) ?
Bi Bi O3 1_6555 . 4_6565 41.4(5) 41.0(5) 42.2(5) ?
Bi Bi O4 1_6555 . . 105.5(7) 105.0(7) 105.7(7) ?
Bi Bi O4 1_6555 . 1_5565 105.5(7) 105.0(7) 105.7(7) ?
Bi Bi O4 1_6555 . 2_5555 142.8(5) 140.7(5) 143.7(6) ?
Bi Bi O4 1_6555 . 2_5565 142.8(5) 140.8(5) 143.7(6) ?
Bi Bi O4 1_6555 . 2_6555 67.3(10) 66.6(10) 68.7(9) ?
Bi Bi O4 1_6555 . 2_6565 67.2(10) 66.6(10) 68.7(9) ?
Bi Bi O4 1_6555 . 3_6555 74.5(7) 74.3(7) 75.0(7) ?
Bi Bi O4 1_6555 . 3_6565 74.5(7) 74.3(7) 75.0(7) ?
Bi Bi O4 1_6555 . 4_5555 112.7(10) 111.3(9) 113.4(10) ?
Bi Bi O4 1_6555 . 4_5565 112.8(10) 111.3(9) 113.4(10) ?
Bi Bi O4 1_6555 . 4_6555 37.2(5) 36.3(6) 39.3(5) ?
Bi Bi O4 1_6555 . 4_6565 37.2(5) 36.3(6) 39.2(5) ?
Bi Bi Bi 1_6565 . 2_5555 118.83(5) 116.51(5) 121.19(5) ?
Bi Bi Bi 1_6565 . 2_6545 118.90(4) 117.65(3) 120.11(3) ?
Bi Bi Bi 1_6565 . 2_6555 89.99(4) 88.65(4) 91.35(4) ?
Bi Bi Bi 1_6565 . 2_6565 61.08(3) 58.92(3) 63.12(3) ?
Bi Bi Bi 1_6565 . 2_7555 61.14(4) 59.45(4) 62.98(4) ?
Bi Bi Bi 1_6565 . 10_5545 138.46(5) 134.24(4) 142.93(5) ?
Bi Bi Bi 1_6565 . 10_5555 89.87(6) 86.57(6) 92.70(6) ?
Bi Bi Bi 1_6565 . 10_6545 90.10(5) 87.03(5) 93.47(5) ?
Bi Bi Bi 1_6565 . 10_6555 41.56(4) 38.55(3) 44.35(4) ?
Bi Bi I 1_6565 . . 142.03(5) 141.01(6) 144.07(4) ?
Bi Bi I 1_6565 . 1_5565 87.92(6) 86.50(6) 90.11(6) ?
Bi Bi I 1_6565 . 1_6555 90.60(5) 89.33(5) 91.19(5) ?
Bi Bi I 1_6565 . 1_6565 37.05(3) 36.91(3) 37.27(3) ?
Bi Bi I 1_6565 . 9_5555 90.57(4) 87.80(4) 92.45(4) ?
Bi Bi B 1_6565 . . 143.58(5) 140.78(4) 145.04(7) ?
Bi Bi B 1_6565 . 1_5565 91.99(5) 89.44(6) 93.09(5) ?
Bi Bi B 1_6565 . 1_6555 89.48(4) 89.18(4) 90.06(4) ?
Bi Bi B 1_6565 . 1_6565 37.17(3) 36.71(3) 37.78(3) ?
Bi Bi O1 1_6565 . . 126.9(6) 119.5(6) 133.9(6) ?
Bi Bi O1 1_6565 . 1_6555 53.1(6) 48.5(6) 58.5(6) ?
Bi Bi O1 1_6565 . 10_5545 126.60(19) 123.7(2) 129.01(19) ?
Bi Bi O1 1_6565 . 10_5555 53.36(19) 50.12(16) 56.6(2) ?
Bi Bi O2 1_6565 . 9_5555 94.1(4) 91.4(4) 98.0(4) ?
Bi Bi O2 1_6565 . 2_5555 164.8(4) 162.6(5) 165.9(4) ?
Bi Bi O2 1_6565 . 2_5565 98.8(6) 94.7(6) 100.7(6) ?
Bi Bi O2 1_6565 . 2_6555 94.3(4) 93.8(4) 95.4(4) ?
Bi Bi O2 1_6565 . 2_6565 19.7(6) 18.6(6) 21.6(6) ?
Bi Bi O2 1_6565 . 11_5555 84.7(4) 81.6(4) 88.6(4) ?
Bi Bi O2 1_6565 . 4_5555 160.6(6) 156.3(6) 163.3(6) ?
Bi Bi O2 1_6565 . 4_5565 87.1(4) 83.9(4) 88.4(4) ?
Bi Bi O2 1_6565 . 4_6555 82.6(6) 81.8(6) 84.3(5) ?
Bi Bi O2 1_6565 . 4_6565 16.2(4) 15.8(4) 16.9(4) ?
Bi Bi O3 1_6565 . . 103.6(7) 101.1(7) 105.3(7) ?
Bi Bi O3 1_6565 . 1_6555 46.7(4) 46.2(4) 47.5(4) ?
Bi Bi O3 1_6565 . 2_5555 113.5(5) 111.1(5) 115.1(5) ?
Bi Bi O3 1_6565 . 2_6555 53.7(6) 52.9(5) 54.8(6) ?
Bi Bi O3 1_6565 . 3_5565 134.8(4) 133.0(4) 135.8(4) ?
Bi Bi O3 1_6565 . 3_6565 77.8(7) 76.8(7) 79.0(7) ?
Bi Bi O3 1_6565 . 4_5565 127.9(6) 126.2(6) 128.7(5) ?
Bi Bi O3 1_6565 . 4_6565 67.7(5) 67.0(5) 68.6(5) ?
Bi Bi O4 1_6565 . . 125.0(7) 123.2(6) 125.9(7) ?
Bi Bi O4 1_6565 . 1_5565 80.0(6) 78.4(6) 80.8(6) ?
Bi Bi O4 1_6565 . 2_5555 157.4(6) 153.7(6) 159.9(7) ?
Bi Bi O4 1_6565 . 2_5565 103.2(4) 100.0(4) 104.5(4) ?
Bi Bi O4 1_6565 . 2_6555 106.0(9) 105.7(9) 106.6(9) ?
Bi Bi O4 1_6565 . 2_6565 36.0(11) 35.6(11) 36.3(11) ?
Bi Bi O4 1_6565 . 3_6555 101.3(6) 101.0(5) 101.7(6) ?
Bi Bi O4 1_6565 . 3_6565 56.1(7) 55.3(7) 56.4(7) ?
Bi Bi O4 1_6565 . 4_5555 145.2(11) 143.5(11) 146.1(11) ?
Bi Bi O4 1_6565 . 4_5565 75.5(9) 72.7(9) 76.7(9) ?
Bi Bi O4 1_6565 . 4_6555 78.3(4) 77.7(4) 79.3(4) ?
Bi Bi O4 1_6565 . 4_6565 22.7(7) 21.9(7) 24.0(6) ?
Bi Bi Bi 2_5555 . 2_6545 57.76(3) 57.13(3) 58.20(3) ?
Bi Bi Bi 2_5555 . 2_6555 43.05(3) 41.77(3) 44.34(3) ?
Bi Bi Bi 2_5555 . 2_6565 57.75(3) 57.13(3) 58.20(3) ?
Bi Bi Bi 2_5555 . 2_7555 86.10(5) 83.54(6) 88.68(6) ?
Bi Bi Bi 2_5555 . 10_5545 97.10(4) 96.07(4) 98.07(4) ?
Bi Bi Bi 2_5555 . 10_5555 97.11(4) 96.07(4) 98.07(4) ?
Bi Bi Bi 2_5555 . 10_6545 147.61(6) 144.69(5) 149.95(5) ?
Bi Bi Bi 2_5555 . 10_6555 147.63(6) 144.69(5) 149.95(5) ?
Bi Bi I 2_5555 . . 35.25(5) 32.67(5) 36.44(4) ?
Bi Bi I 2_5555 . 1_5565 35.22(5) 32.75(5) 36.44(4) ?
Bi Bi I 2_5555 . 1_6555 85.86(5) 84.67(6) 88.28(4) ?
Bi Bi I 2_5555 . 1_6565 85.86(5) 84.67(6) 88.26(4) ?
Bi Bi I 2_5555 . 9_5555 137.75(3) 136.92(3) 138.23(3) ?
Bi Bi B 2_5555 . . 33.45(3) 31.41(3) 36.61(3) ?
Bi Bi B 2_5555 . 1_5565 33.41(3) 31.41(2) 36.53(3) ?
Bi Bi B 2_5555 . 1_6555 87.71(5) 85.19(4) 88.92(6) ?
Bi Bi B 2_5555 . 1_6565 87.71(5) 85.21(4) 88.92(6) ?
Bi Bi O1 2_5555 . . 78.78(19) 77.1(2) 79.63(18) ?
Bi Bi O1 2_5555 . 1_6555 164.3(2) 160.7(2) 167.65(19) ?
Bi Bi O1 2_5555 . 10_5545 113.1(3) 111.0(2) 115.2(3) ?
Bi Bi O1 2_5555 . 10_5555 113.1(3) 111.0(2) 115.2(3) ?
Bi Bi O2 2_5555 . 9_5555 135.66(8) 135.21(8) 136.75(5) ?
Bi Bi O2 2_5555 . 2_5555 51.3(5) 49.6(5) 53.8(5) ?
Bi Bi O2 2_5555 . 2_5565 41.2(6) 39.0(7) 44.5(6) ?
Bi Bi O2 2_5555 . 2_6555 104.1(4) 101.8(4) 105.1(4) ?
Bi Bi O2 2_5555 . 2_6565 107.1(5) 104.2(5) 108.4(5) ?
Bi Bi O2 2_5555 . 11_5555 135.67(7) 135.21(8) 136.82(5) ?
Bi Bi O2 2_5555 . 4_5555 41.3(6) 39.0(7) 44.5(6) ?
Bi Bi O2 2_5555 . 4_5565 51.3(5) 49.6(5) 53.8(5) ?
Bi Bi O2 2_5555 . 4_6555 107.2(5) 104.3(5) 108.4(5) ?
Bi Bi O2 2_5555 . 4_6565 104.1(4) 101.8(4) 105.1(4) ?
Bi Bi O3 2_5555 . . 17.7(7) 15.3(7) 20.0(7) ?
Bi Bi O3 2_5555 . 1_6555 94.4(4) 94.0(4) 94.7(4) ?
Bi Bi O3 2_5555 . 2_5555 14.2(4) 12.2(4) 16.1(4) ?
Bi Bi O3 2_5555 . 2_6555 81.1(7) 80.5(7) 81.3(7) ?
Bi Bi O3 2_5555 . 3_5565 14.3(4) 12.3(4) 16.2(4) ?
Bi Bi O3 2_5555 . 3_6565 81.1(7) 80.6(7) 81.3(7) ?
Bi Bi O3 2_5555 . 4_5565 17.8(7) 15.4(7) 20.1(7) ?
Bi Bi O3 2_5555 . 4_6565 94.4(4) 93.9(4) 94.7(4) ?
Bi Bi O4 2_5555 . . 39.9(6) 38.0(5) 42.4(5) ?
Bi Bi O4 2_5555 . 1_5565 39.9(6) 38.0(5) 42.3(5) ?
Bi Bi O4 2_5555 . 2_5555 37.6(6) 36.2(6) 39.9(6) ?
Bi Bi O4 2_5555 . 2_5565 37.6(6) 36.2(6) 39.8(6) ?
Bi Bi O4 2_5555 . 2_6555 84.0(11) 81.3(11) 85.4(11) ?
Bi Bi O4 2_5555 . 2_6565 84.0(11) 81.3(11) 85.4(11) ?
Bi Bi O4 2_5555 . 3_6555 66.5(7) 64.3(7) 67.9(7) ?
Bi Bi O4 2_5555 . 3_6565 66.5(7) 64.3(7) 67.9(7) ?
Bi Bi O4 2_5555 . 4_5555 50.4(9) 47.7(9) 53.8(9) ?
Bi Bi O4 2_5555 . 4_5565 50.3(9) 47.7(9) 53.7(9) ?
Bi Bi O4 2_5555 . 4_6555 107.8(8) 105.3(8) 108.9(8) ?
Bi Bi O4 2_5555 . 4_6565 107.9(8) 105.4(8) 108.9(8) ?
Bi Bi Bi 2_6545 . 2_6555 43.10(5) 42.17(5) 44.31(5) ?
Bi Bi Bi 2_6545 . 2_6565 86.18(5) 84.62(6) 87.76(6) ?
Bi Bi Bi 2_6545 . 2_7555 57.76(4) 57.13(4) 58.20(4) ?
Bi Bi Bi 2_6545 . 10_5545 97.00(6) 92.35(6) 101.06(6) ?
Bi Bi Bi 2_6545 . 10_5555 147.76(3) 147.53(3) 147.90(3) ?
Bi Bi Bi 2_6545 . 10_6545 97.00(6) 92.35(6) 101.06(6) ?
Bi Bi Bi 2_6545 . 10_6555 147.76(3) 147.53(3) 147.90(3) ?
Bi Bi I 2_6545 . . 33.48(3) 32.91(3) 34.46(3) ?
Bi Bi I 2_6545 . 1_5565 87.39(6) 86.08(6) 88.01(6) ?
Bi Bi I 2_6545 . 1_6555 33.48(3) 32.91(3) 34.46(3) ?
Bi Bi I 2_6545 . 1_6565 87.39(6) 86.08(6) 88.01(6) ?
Bi Bi I 2_6545 . 9_5555 136.41(6) 134.12(6) 139.37(5) ?
Bi Bi B 2_6545 . . 35.18(2) 33.97(2) 35.71(2) ?
Bi Bi B 2_6545 . 1_5565 86.25(5) 84.97(4) 88.35(4) ?
Bi Bi B 2_6545 . 1_6555 35.18(2) 33.97(2) 35.71(2) ?
Bi Bi B 2_6545 . 1_6565 86.25(5) 84.97(4) 88.35(4) ?
Bi Bi O1 2_6545 . . 112.5(5) 107.2(5) 117.7(5) ?
Bi Bi O1 2_6545 . 1_6555 112.5(5) 107.2(5) 117.7(5) ?
Bi Bi O1 2_6545 . 10_5545 79.3(4) 75.3(3) 83.9(4) ?
Bi Bi O1 2_6545 . 10_5555 165.6(4) 161.8(3) 169.3(4) ?
Bi Bi O2 2_6545 . 9_5555 130.6(6) 125.9(6) 134.2(6) ?
Bi Bi O2 2_6545 . 2_5555 46.6(4) 45.2(4) 47.3(4) ?
Bi Bi O2 2_6545 . 2_5565 99.1(6) 97.0(7) 101.7(6) ?
Bi Bi O2 2_6545 . 2_6555 46.6(4) 45.2(4) 47.3(4) ?
Bi Bi O2 2_6545 . 2_6565 99.1(6) 97.0(7) 101.7(6) ?
Bi Bi O2 2_6545 . 11_5555 144.1(6) 139.6(6) 147.9(6) ?
Bi Bi O2 2_6545 . 4_5555 51.9(5) 50.2(5) 52.7(5) ?
Bi Bi O2 2_6545 . 4_5565 107.9(5) 106.5(5) 109.4(5) ?
Bi Bi O2 2_6545 . 4_6555 51.9(5) 50.2(5) 52.7(5) ?
Bi Bi O2 2_6545 . 4_6565 107.9(5) 106.5(5) 109.4(5) ?
Bi Bi O3 2_6545 . . 67.3(6) 65.2(6) 69.2(5) ?
Bi Bi O3 2_6545 . 1_6555 71.9(4) 70.3(4) 73.3(4) ?
Bi Bi O3 2_6545 . 2_5555 71.9(4) 70.3(4) 73.3(4) ?
Bi Bi O3 2_6545 . 2_6555 67.3(6) 65.2(6) 69.2(5) ?
Bi Bi O3 2_6545 . 3_5565 52.4(5) 51.0(5) 53.8(5) ?
Bi Bi O3 2_6545 . 3_6565 40.8(7) 39.0(7) 42.6(7) ?
Bi Bi O3 2_6545 . 4_5565 40.8(7) 39.0(7) 42.6(7) ?
Bi Bi O3 2_6545 . 4_6565 52.4(5) 51.0(5) 53.8(5) ?
Bi Bi O4 2_6545 . . 18.0(6) 16.3(6) 19.2(6) ?
Bi Bi O4 2_6545 . 1_5565 76.8(5) 75.7(5) 79.0(5) ?
Bi Bi O4 2_6545 . 2_5555 54.1(7) 52.7(7) 54.7(7) ?
Bi Bi O4 2_6545 . 2_5565 95.6(6) 94.3(6) 97.4(6) ?
Bi Bi O4 2_6545 . 2_6555 26.5(11) 24.7(11) 27.4(11) ?
Bi Bi O4 2_6545 . 2_6565 98.5(10) 96.7(10) 100.9(10) ?
Bi Bi O4 2_6545 . 3_6555 18.0(6) 16.3(6) 19.2(6) ?
Bi Bi O4 2_6545 . 3_6565 76.8(5) 75.7(5) 79.0(5) ?
Bi Bi O4 2_6545 . 4_5555 26.5(11) 24.7(11) 27.4(11) ?
Bi Bi O4 2_6545 . 4_5565 98.5(10) 96.7(10) 100.9(10) ?
Bi Bi O4 2_6545 . 4_6555 54.1(7) 52.7(7) 54.7(7) ?
Bi Bi O4 2_6545 . 4_6565 95.6(6) 94.3(6) 97.4(6) ?
Bi Bi Bi 2_6555 . 2_6565 43.09(4) 42.17(5) 44.31(5) ?
Bi Bi Bi 2_6555 . 2_7555 43.05(2) 41.77(3) 44.34(3) ?
Bi Bi Bi 2_6555 . 10_5545 131.53(5) 128.29(4) 134.49(4) ?
Bi Bi Bi 2_6555 . 10_5555 131.55(5) 128.29(4) 134.49(4) ?
Bi Bi Bi 2_6555 . 10_6545 131.53(5) 128.29(4) 134.49(4) ?
Bi Bi Bi 2_6555 . 10_6555 131.55(5) 128.29(4) 134.49(4) ?
Bi Bi I 2_6555 . . 52.96(4) 51.40(4) 54.24(4) ?
Bi Bi I 2_6555 . 1_5565 52.95(4) 51.41(4) 54.24(4) ?
Bi Bi I 2_6555 . 1_6555 52.96(4) 51.40(4) 54.24(4) ?
Bi Bi I 2_6555 . 1_6565 52.95(4) 51.41(4) 54.24(4) ?
Bi Bi I 2_6555 . 9_5555 178.80(6) 178.27(5) 180 ?
Bi Bi B 2_6555 . . 52.86(3) 50.93(3) 54.69(3) ?
Bi Bi B 2_6555 . 1_5565 52.84(3) 50.93(3) 54.68(3) ?
Bi Bi B 2_6555 . 1_6555 52.86(3) 50.93(3) 54.69(3) ?
Bi Bi B 2_6555 . 1_6565 52.84(3) 50.93(3) 54.68(3) ?
Bi Bi O1 2_6555 . . 121.70(19) 118.9(2) 123.33(18) ?
Bi Bi O1 2_6555 . 1_6555 121.70(19) 118.9(2) 123.33(18) ?
Bi Bi O1 2_6555 . 10_5545 122.4(4) 119.4(3) 126.1(4) ?
Bi Bi O1 2_6555 . 10_5555 122.5(4) 119.4(3) 126.1(4) ?
Bi Bi O2 2_6555 . 9_5555 173.2(6) 169.7(6) 176.5(6) ?
Bi Bi O2 2_6555 . 2_5555 74.8(5) 72.6(5) 76.1(5) ?
Bi Bi O2 2_6555 . 2_5565 71.6(6) 69.0(6) 73.1(5) ?
Bi Bi O2 2_6555 . 2_6555 74.8(5) 72.6(5) 76.1(5) ?
Bi Bi O2 2_6555 . 2_6565 71.6(6) 69.0(6) 73.1(5) ?
Bi Bi O2 2_6555 . 11_5555 173.3(6) 169.8(6) 176.5(6) ?
Bi Bi O2 2_6555 . 4_5555 71.6(6) 69.1(6) 73.1(5) ?
Bi Bi O2 2_6555 . 4_5565 74.8(5) 72.6(5) 76.1(5) ?
Bi Bi O2 2_6555 . 4_6555 71.6(6) 69.1(6) 73.1(5) ?
Bi Bi O2 2_6555 . 4_6565 74.8(5) 72.6(5) 76.1(5) ?
Bi Bi O3 2_6555 . . 39.4(6) 38.3(6) 40.1(6) ?
Bi Bi O3 2_6555 . 1_6555 51.5(4) 50.9(4) 51.8(4) ?
Bi Bi O3 2_6555 . 2_5555 51.5(4) 50.9(4) 51.8(4) ?
Bi Bi O3 2_6555 . 2_6555 39.4(6) 38.3(6) 40.1(6) ?
Bi Bi O3 2_6555 . 3_5565 51.5(4) 51.0(4) 51.8(4) ?
Bi Bi O3 2_6555 . 3_6565 39.4(6) 38.4(6) 40.1(6) ?
Bi Bi O3 2_6555 . 4_5565 39.4(6) 38.4(6) 40.1(6) ?
Bi Bi O3 2_6555 . 4_6565 51.5(4) 51.0(4) 51.8(4) ?
Bi Bi O4 2_6555 . . 36.3(6) 34.3(6) 39.0(6) ?
Bi Bi O4 2_6555 . 1_5565 36.3(6) 34.3(6) 39.0(6) ?
Bi Bi O4 2_6555 . 2_5555 70.4(8) 68.6(8) 71.4(8) ?
Bi Bi O4 2_6555 . 2_5565 70.4(8) 68.7(8) 71.4(8) ?
Bi Bi O4 2_6555 . 2_6555 59.2(11) 56.3(11) 61.9(10) ?
Bi Bi O4 2_6555 . 2_6565 59.2(11) 56.3(11) 61.9(10) ?
Bi Bi O4 2_6555 . 3_6555 36.3(6) 34.3(6) 39.0(6) ?
Bi Bi O4 2_6555 . 3_6565 36.3(6) 34.3(6) 39.0(6) ?
Bi Bi O4 2_6555 . 4_5555 59.2(11) 56.3(11) 61.9(10) ?
Bi Bi O4 2_6555 . 4_5565 59.2(11) 56.3(11) 61.9(10) ?
Bi Bi O4 2_6555 . 4_6555 70.4(8) 68.6(8) 71.4(8) ?
Bi Bi O4 2_6555 . 4_6565 70.4(8) 68.7(8) 71.4(8) ?
Bi Bi Bi 2_6565 . 2_7555 57.75(4) 57.13(4) 58.20(4) ?
Bi Bi Bi 2_6565 . 10_5545 147.76(3) 147.53(3) 147.90(3) ?
Bi Bi Bi 2_6565 . 10_5555 97.03(6) 92.35(6) 101.06(6) ?
Bi Bi Bi 2_6565 . 10_6545 147.76(3) 147.53(3) 147.90(3) ?
Bi Bi Bi 2_6565 . 10_6555 97.03(6) 92.35(6) 101.06(6) ?
Bi Bi I 2_6565 . . 87.40(6) 86.03(6) 88.01(6) ?
Bi Bi I 2_6565 . 1_5565 33.49(3) 32.91(3) 34.40(3) ?
Bi Bi I 2_6565 . 1_6555 87.40(6) 86.03(6) 88.01(6) ?
Bi Bi I 2_6565 . 1_6565 33.49(3) 32.91(3) 34.40(3) ?
Bi Bi I 2_6565 . 9_5555 136.42(6) 134.12(6) 139.36(5) ?
Bi Bi B 2_6565 . . 86.27(5) 84.97(4) 88.39(4) ?
Bi Bi B 2_6565 . 1_5565 35.20(2) 34.03(2) 35.71(2) ?
Bi Bi B 2_6565 . 1_6555 86.27(5) 84.97(4) 88.39(4) ?
Bi Bi B 2_6565 . 1_6565 35.20(2) 34.03(2) 35.71(2) ?
Bi Bi O1 2_6565 . . 112.6(5) 107.2(5) 117.7(5) ?
Bi Bi O1 2_6565 . 1_6555 112.6(5) 107.2(5) 117.7(5) ?
Bi Bi O1 2_6565 . 10_5545 165.5(4) 161.8(3) 169.3(4) ?
Bi Bi O1 2_6565 . 10_5555 79.4(4) 75.3(3) 83.9(4) ?
Bi Bi O2 2_6565 . 9_5555 144.2(6) 139.7(6) 148.0(6) ?
Bi Bi O2 2_6565 . 2_5555 107.9(5) 106.5(5) 109.4(5) ?
Bi Bi O2 2_6565 . 2_5565 51.9(5) 50.3(5) 52.7(5) ?
Bi Bi O2 2_6565 . 2_6555 107.9(5) 106.5(5) 109.4(5) ?
Bi Bi O2 2_6565 . 2_6565 51.9(5) 50.3(5) 52.7(5) ?
Bi Bi O2 2_6565 . 11_5555 130.7(6) 126.0(6) 134.2(6) ?
Bi Bi O2 2_6565 . 4_5555 99.1(6) 97.0(7) 101.7(6) ?
Bi Bi O2 2_6565 . 4_5565 46.6(4) 45.2(4) 47.3(4) ?
Bi Bi O2 2_6565 . 4_6555 99.1(6) 97.0(7) 101.7(6) ?
Bi Bi O2 2_6565 . 4_6565 46.6(4) 45.2(4) 47.3(4) ?
Bi Bi O3 2_6565 . . 40.9(7) 39.1(7) 42.7(7) ?
Bi Bi O3 2_6565 . 1_6555 52.5(5) 51.0(5) 53.8(5) ?
Bi Bi O3 2_6565 . 2_5555 52.5(5) 51.0(5) 53.8(5) ?
Bi Bi O3 2_6565 . 2_6555 40.9(7) 39.1(7) 42.7(7) ?
Bi Bi O3 2_6565 . 3_5565 72.0(4) 70.4(4) 73.4(4) ?
Bi Bi O3 2_6565 . 3_6565 67.4(6) 65.3(6) 69.3(5) ?
Bi Bi O3 2_6565 . 4_5565 67.4(6) 65.3(6) 69.3(5) ?
Bi Bi O3 2_6565 . 4_6565 72.0(4) 70.4(4) 73.4(4) ?
Bi Bi O4 2_6565 . . 76.8(5) 75.7(5) 79.0(5) ?
Bi Bi O4 2_6565 . 1_5565 18.0(6) 16.3(6) 19.2(6) ?
Bi Bi O4 2_6565 . 2_5555 95.6(6) 94.3(6) 97.4(6) ?
Bi Bi O4 2_6565 . 2_5565 54.1(7) 52.8(7) 54.7(7) ?
Bi Bi O4 2_6565 . 2_6555 98.6(10) 96.7(10) 101.0(10) ?
Bi Bi O4 2_6565 . 2_6565 26.5(11) 24.8(11) 27.4(11) ?
Bi Bi O4 2_6565 . 3_6555 76.8(5) 75.7(5) 79.0(5) ?
Bi Bi O4 2_6565 . 3_6565 18.0(6) 16.3(6) 19.2(6) ?
Bi Bi O4 2_6565 . 4_5555 98.6(10) 96.7(10) 101.0(10) ?
Bi Bi O4 2_6565 . 4_5565 26.5(11) 24.8(11) 27.4(11) ?
Bi Bi O4 2_6565 . 4_6555 95.6(6) 94.3(6) 97.4(6) ?
Bi Bi O4 2_6565 . 4_6565 54.1(7) 52.8(7) 54.7(7) ?
Bi Bi Bi 2_7555 . 10_5545 147.61(6) 144.69(5) 149.95(5) ?
Bi Bi Bi 2_7555 . 10_5555 147.63(6) 144.69(5) 149.95(5) ?
Bi Bi Bi 2_7555 . 10_6545 97.10(4) 96.07(4) 98.07(4) ?
Bi Bi Bi 2_7555 . 10_6555 97.11(4) 96.07(4) 98.07(4) ?
Bi Bi I 2_7555 . . 85.86(5) 84.67(6) 88.28(4) ?
Bi Bi I 2_7555 . 1_5565 85.86(5) 84.67(6) 88.26(4) ?
Bi Bi I 2_7555 . 1_6555 35.25(5) 32.67(5) 36.44(4) ?
Bi Bi I 2_7555 . 1_6565 35.22(5) 32.75(5) 36.44(4) ?
Bi Bi I 2_7555 . 9_5555 137.75(3) 136.92(3) 138.23(3) ?
Bi Bi B 2_7555 . . 87.71(5) 85.19(4) 88.92(6) ?
Bi Bi B 2_7555 . 1_5565 87.71(5) 85.21(4) 88.92(6) ?
Bi Bi B 2_7555 . 1_6555 33.45(3) 31.41(3) 36.61(3) ?
Bi Bi B 2_7555 . 1_6565 33.41(3) 31.41(2) 36.53(3) ?
Bi Bi O1 2_7555 . . 164.3(2) 160.7(2) 167.65(19) ?
Bi Bi O1 2_7555 . 1_6555 78.78(19) 77.1(2) 79.63(18) ?
Bi Bi O1 2_7555 . 10_5545 113.1(3) 111.0(2) 115.2(3) ?
Bi Bi O1 2_7555 . 10_5555 113.1(3) 111.0(2) 115.2(3) ?
Bi Bi O2 2_7555 . 9_5555 135.66(8) 135.21(8) 136.75(5) ?
Bi Bi O2 2_7555 . 2_5555 104.1(4) 101.8(4) 105.1(4) ?
Bi Bi O2 2_7555 . 2_5565 107.1(5) 104.2(5) 108.4(5) ?
Bi Bi O2 2_7555 . 2_6555 51.3(5) 49.6(5) 53.8(5) ?
Bi Bi O2 2_7555 . 2_6565 41.2(6) 39.0(7) 44.5(6) ?
Bi Bi O2 2_7555 . 11_5555 135.67(7) 135.21(8) 136.82(5) ?
Bi Bi O2 2_7555 . 4_5555 107.2(5) 104.3(5) 108.4(5) ?
Bi Bi O2 2_7555 . 4_5565 104.1(4) 101.8(4) 105.1(4) ?
Bi Bi O2 2_7555 . 4_6555 41.3(6) 39.0(7) 44.5(6) ?
Bi Bi O2 2_7555 . 4_6565 51.3(5) 49.6(5) 53.8(5) ?
Bi Bi O3 2_7555 . . 81.1(7) 80.5(7) 81.3(7) ?
Bi Bi O3 2_7555 . 1_6555 14.2(4) 12.2(4) 16.1(4) ?
Bi Bi O3 2_7555 . 2_5555 94.4(4) 94.0(4) 94.7(4) ?
Bi Bi O3 2_7555 . 2_6555 17.7(7) 15.3(7) 20.0(7) ?
Bi Bi O3 2_7555 . 3_5565 94.4(4) 93.9(4) 94.7(4) ?
Bi Bi O3 2_7555 . 3_6565 17.8(7) 15.4(7) 20.1(7) ?
Bi Bi O3 2_7555 . 4_5565 81.1(7) 80.6(7) 81.3(7) ?
Bi Bi O3 2_7555 . 4_6565 14.3(4) 12.3(4) 16.2(4) ?
Bi Bi O4 2_7555 . . 66.5(7) 64.3(7) 67.9(7) ?
Bi Bi O4 2_7555 . 1_5565 66.5(7) 64.3(7) 67.9(7) ?
Bi Bi O4 2_7555 . 2_5555 107.8(8) 105.3(8) 108.9(8) ?
Bi Bi O4 2_7555 . 2_5565 107.9(8) 105.4(8) 108.9(8) ?
Bi Bi O4 2_7555 . 2_6555 50.4(9) 47.7(9) 53.8(9) ?
Bi Bi O4 2_7555 . 2_6565 50.3(9) 47.7(9) 53.7(9) ?
Bi Bi O4 2_7555 . 3_6555 39.9(6) 38.0(5) 42.4(5) ?
Bi Bi O4 2_7555 . 3_6565 39.9(6) 38.0(5) 42.3(5) ?
Bi Bi O4 2_7555 . 4_5555 84.0(11) 81.3(11) 85.4(11) ?
Bi Bi O4 2_7555 . 4_5565 84.0(11) 81.3(11) 85.4(11) ?
Bi Bi O4 2_7555 . 4_6555 37.6(6) 36.2(6) 39.9(6) ?
Bi Bi O4 2_7555 . 4_6565 37.6(6) 36.2(6) 39.8(6) ?
Bi Bi Bi 10_5545 . 10_5555 64.02(6) 58.63(7) 70.02(7) ?
Bi Bi Bi 10_5545 . 10_6545 63.72(5) 62.81(5) 64.22(5) ?
Bi Bi Bi 10_5545 . 10_6555 96.92(6) 91.38(8) 102.89(8) ?
Bi Bi I 10_5545 . . 76.79(5) 75.47(6) 79.15(6) ?
Bi Bi I 10_5545 . 1_5565 114.36(4) 113.54(4) 114.90(4) ?
Bi Bi I 10_5545 . 1_6555 110.91(7) 109.06(8) 114.32(9) ?
Bi Bi I 10_5545 . 1_6565 175.56(6) 171.24(7) 178.80(5) ?
Bi Bi I 10_5545 . 9_5555 50.28(4) 48.38(4) 51.45(5) ?
Bi Bi B 10_5545 . . 80.52(5) 78.19(5) 81.58(5) ?
Bi Bi B 10_5545 . 1_5565 112.79(4) 112.31(4) 113.84(4) ?
Bi Bi B 10_5545 . 1_6555 116.06(6) 112.48(8) 117.74(6) ?
Bi Bi B 10_5545 . 1_6565 173.88(5) 170.56(6) 176.57(3) ?
Bi Bi O1 10_5545 . . 37.0(6) 31.9(6) 42.8(6) ?
Bi Bi O1 10_5545 . 1_6555 95.6(4) 92.0(4) 100.6(4) ?
Bi Bi O1 10_5545 . 10_5545 36.57(18) 35.57(17) 38.12(18) ?
Bi Bi O1 10_5545 . 10_5555 95.2(3) 90.2(4) 99.7(3) ?
Bi Bi O2 10_5545 . 9_5555 42.1(4) 41.1(3) 44.7(4) ?
Bi Bi O2 10_5545 . 2_5555 58.8(5) 57.4(4) 59.5(5) ?
Bi Bi O2 10_5545 . 2_5565 96.1(5) 95.3(5) 97.6(5) ?
Bi Bi O2 10_5545 . 2_6555 98.2(5) 95.4(5) 99.7(5) ?
Bi Bi O2 10_5545 . 2_6565 155.0(5) 152.2(5) 159.7(5) ?
Bi Bi O2 10_5545 . 11_5555 51.5(4) 50.2(4) 54.5(4) ?
Bi Bi O2 10_5545 . 4_5555 62.1(6) 59.9(5) 63.2(6) ?
Bi Bi O2 10_5545 . 4_5565 102.9(4) 102.0(4) 105.0(4) ?
Bi Bi O2 10_5545 . 4_6555 109.1(7) 105.1(6) 111.3(7) ?
Bi Bi O2 10_5545 . 4_6565 152.5(5) 148.6(5) 158.7(5) ?
Bi Bi O3 10_5545 . . 112.0(7) 110.4(7) 113.4(7) ?
Bi Bi O3 10_5545 . 1_6555 159.1(5) 156.9(5) 161.0(5) ?
Bi Bi O3 10_5545 . 2_5555 98.6(5) 97.2(5) 99.9(5) ?
Bi Bi O3 10_5545 . 2_6555 166.4(6) 162.6(6) 169.1(6) ?
Bi Bi O3 10_5545 . 3_5565 86.0(4) 84.2(4) 87.5(4) ?
Bi Bi O3 10_5545 . 3_6565 134.3(6) 130.7(6) 137.4(6) ?
Bi Bi O3 10_5545 . 4_5565 95.8(6) 93.6(6) 97.7(6) ?
Bi Bi O3 10_5545 . 4_6565 135.6(5) 132.8(5) 138.0(5) ?
Bi Bi O4 10_5545 . . 98.5(6) 95.7(6) 99.8(6) ?
Bi Bi O4 10_5545 . 1_5565 132.4(7) 131.4(7) 133.5(7) ?
Bi Bi O4 10_5545 . 2_5555 63.9(8) 62.1(8) 64.7(8) ?
Bi Bi O4 10_5545 . 2_5565 93.8(7) 93.1(7) 94.9(7) ?
Bi Bi O4 10_5545 . 2_6555 99.7(9) 95.8(9) 101.7(9) ?
Bi Bi O4 10_5545 . 2_6565 161.1(9) 155.8(9) 166.8(8) ?
Bi Bi O4 10_5545 . 3_6555 115.3(5) 111.8(5) 116.9(5) ?
Bi Bi O4 10_5545 . 3_6565 162.8(7) 160.3(7) 164.0(7) ?
Bi Bi O4 10_5545 . 4_5555 76.3(11) 73.7(11) 77.5(12) ?
Bi Bi O4 10_5545 . 4_5565 122.4(11) 121.7(11) 124.3(10) ?
Bi Bi O4 10_5545 . 4_6555 113.3(5) 110.3(5) 114.8(5) ?
Bi Bi O4 10_5545 . 4_6565 154.8(8) 153.0(8) 158.0(7) ?
Bi Bi Bi 10_5555 . 10_6545 96.92(6) 91.38(8) 102.89(8) ?
Bi Bi Bi 10_5555 . 10_6555 63.72(5) 62.81(5) 64.22(5) ?
Bi Bi I 10_5555 . . 114.37(4) 113.47(4) 114.90(4) ?
Bi Bi I 10_5555 . 1_5565 76.82(5) 75.47(6) 78.99(6) ?
Bi Bi I 10_5555 . 1_6555 175.55(6) 171.23(7) 178.80(4) ?
Bi Bi I 10_5555 . 1_6565 110.94(7) 109.06(8) 114.09(9) ?
Bi Bi I 10_5555 . 9_5555 50.28(4) 48.28(4) 51.45(5) ?
Bi Bi B 10_5555 . . 112.81(4) 112.31(4) 113.89(4) ?
Bi Bi B 10_5555 . 1_5565 80.56(5) 78.33(5) 81.59(5) ?
Bi Bi B 10_5555 . 1_6555 173.84(5) 170.56(6) 176.57(3) ?
Bi Bi B 10_5555 . 1_6565 116.12(6) 112.67(7) 117.74(6) ?
Bi Bi O1 10_5555 . . 37.0(6) 31.9(6) 42.8(6) ?
Bi Bi O1 10_5555 . 1_6555 95.6(4) 92.0(4) 100.6(4) ?
Bi Bi O1 10_5555 . 10_5545 95.2(3) 90.2(4) 99.7(3) ?
Bi Bi O1 10_5555 . 10_5555 36.57(18) 35.58(17) 38.12(18) ?
Bi Bi O2 10_5555 . 9_5555 51.5(4) 50.2(4) 54.7(4) ?
Bi Bi O2 10_5555 . 2_5555 102.9(4) 102.0(4) 105.0(4) ?
Bi Bi O2 10_5555 . 2_5565 62.2(6) 60.0(5) 63.2(6) ?
Bi Bi O2 10_5555 . 2_6555 152.6(5) 148.6(5) 158.7(5) ?
Bi Bi O2 10_5555 . 2_6565 109.2(7) 105.3(6) 111.3(7) ?
Bi Bi O2 10_5555 . 11_5555 42.2(4) 41.1(3) 44.8(4) ?
Bi Bi O2 10_5555 . 4_5555 96.1(5) 95.3(5) 97.7(5) ?
Bi Bi O2 10_5555 . 4_5565 58.8(5) 57.4(4) 59.5(5) ?
Bi Bi O2 10_5555 . 4_6555 154.8(5) 152.2(5) 159.6(5) ?
Bi Bi O2 10_5555 . 4_6565 98.2(5) 95.3(5) 99.7(5) ?
Bi Bi O3 10_5555 . . 95.9(6) 93.7(6) 97.8(6) ?
Bi Bi O3 10_5555 . 1_6555 135.8(5) 133.0(5) 138.1(5) ?
Bi Bi O3 10_5555 . 2_5555 86.1(4) 84.3(4) 87.5(4) ?
Bi Bi O3 10_5555 . 2_6555 134.5(6) 131.0(6) 137.5(6) ?
Bi Bi O3 10_5555 . 3_5565 98.7(5) 97.3(5) 99.9(5) ?
Bi Bi O3 10_5555 . 3_6565 166.6(6) 162.9(6) 169.2(6) ?
Bi Bi O3 10_5555 . 4_5565 112.1(7) 110.5(7) 113.4(7) ?
Bi Bi O3 10_5555 . 4_6565 159.2(5) 157.1(5) 161.1(5) ?
Bi Bi O4 10_5555 . . 132.4(7) 131.4(7) 133.5(7) ?
Bi Bi O4 10_5555 . 1_5565 98.5(6) 95.8(6) 99.8(6) ?
Bi Bi O4 10_5555 . 2_5555 93.8(7) 93.1(7) 95.0(7) ?
Bi Bi O4 10_5555 . 2_5565 63.9(8) 62.2(8) 64.7(8) ?
Bi Bi O4 10_5555 . 2_6555 161.0(9) 155.8(9) 166.8(8) ?
Bi Bi O4 10_5555 . 2_6565 99.8(9) 96.0(9) 101.7(9) ?
Bi Bi O4 10_5555 . 3_6555 162.8(7) 160.3(7) 164.0(7) ?
Bi Bi O4 10_5555 . 3_6565 115.3(5) 112.0(5) 116.9(5) ?
Bi Bi O4 10_5555 . 4_5555 122.4(11) 121.7(11) 124.3(10) ?
Bi Bi O4 10_5555 . 4_5565 76.3(11) 73.8(11) 77.5(12) ?
Bi Bi O4 10_5555 . 4_6555 154.8(8) 153.0(8) 158.0(7) ?
Bi Bi O4 10_5555 . 4_6565 113.3(5) 110.4(5) 114.8(5) ?
Bi Bi Bi 10_6545 . 10_6555 64.02(6) 58.63(7) 70.02(7) ?
Bi Bi I 10_6545 . . 110.91(7) 109.06(8) 114.32(9) ?
Bi Bi I 10_6545 . 1_5565 175.56(6) 171.24(7) 178.80(5) ?
Bi Bi I 10_6545 . 1_6555 76.79(5) 75.47(6) 79.15(6) ?
Bi Bi I 10_6545 . 1_6565 114.36(4) 113.54(4) 114.90(4) ?
Bi Bi I 10_6545 . 9_5555 50.28(4) 48.38(4) 51.45(5) ?
Bi Bi B 10_6545 . . 116.06(6) 112.48(8) 117.74(6) ?
Bi Bi B 10_6545 . 1_5565 173.88(5) 170.56(6) 176.57(3) ?
Bi Bi B 10_6545 . 1_6555 80.52(5) 78.19(5) 81.58(5) ?
Bi Bi B 10_6545 . 1_6565 112.79(4) 112.31(4) 113.84(4) ?
Bi Bi O1 10_6545 . . 95.6(4) 92.0(4) 100.6(4) ?
Bi Bi O1 10_6545 . 1_6555 37.0(6) 31.9(6) 42.8(6) ?
Bi Bi O1 10_6545 . 10_5545 36.57(18) 35.57(17) 38.12(18) ?
Bi Bi O1 10_6545 . 10_5555 95.2(3) 90.2(4) 99.7(3) ?
Bi Bi O2 10_6545 . 9_5555 42.1(4) 41.1(3) 44.7(4) ?
Bi Bi O2 10_6545 . 2_5555 98.2(5) 95.4(5) 99.7(5) ?
Bi Bi O2 10_6545 . 2_5565 155.0(5) 152.2(5) 159.7(5) ?
Bi Bi O2 10_6545 . 2_6555 58.8(5) 57.4(4) 59.5(5) ?
Bi Bi O2 10_6545 . 2_6565 96.1(5) 95.3(5) 97.6(5) ?
Bi Bi O2 10_6545 . 11_5555 51.5(4) 50.2(4) 54.5(4) ?
Bi Bi O2 10_6545 . 4_5555 109.1(7) 105.1(6) 111.3(7) ?
Bi Bi O2 10_6545 . 4_5565 152.5(5) 148.6(5) 158.7(5) ?
Bi Bi O2 10_6545 . 4_6555 62.1(6) 59.9(5) 63.2(6) ?
Bi Bi O2 10_6545 . 4_6565 102.9(4) 102.0(4) 105.0(4) ?
Bi Bi O3 10_6545 . . 166.4(6) 162.6(6) 169.1(6) ?
Bi Bi O3 10_6545 . 1_6555 98.6(5) 97.2(5) 99.9(5) ?
Bi Bi O3 10_6545 . 2_5555 159.1(5) 156.9(5) 161.0(5) ?
Bi Bi O3 10_6545 . 2_6555 112.0(7) 110.4(7) 113.4(7) ?
Bi Bi O3 10_6545 . 3_5565 135.6(5) 132.8(5) 138.0(5) ?
Bi Bi O3 10_6545 . 3_6565 95.8(6) 93.6(6) 97.7(6) ?
Bi Bi O3 10_6545 . 4_5565 134.3(6) 130.7(6) 137.4(6) ?
Bi Bi O3 10_6545 . 4_6565 86.0(4) 84.2(4) 87.5(4) ?
Bi Bi O4 10_6545 . . 115.3(5) 111.8(5) 116.9(5) ?
Bi Bi O4 10_6545 . 1_5565 162.8(7) 160.3(7) 164.0(7) ?
Bi Bi O4 10_6545 . 2_5555 113.3(5) 110.3(5) 114.8(5) ?
Bi Bi O4 10_6545 . 2_5565 154.8(8) 153.0(8) 158.0(7) ?
Bi Bi O4 10_6545 . 2_6555 76.3(11) 73.7(11) 77.5(12) ?
Bi Bi O4 10_6545 . 2_6565 122.4(11) 121.7(11) 124.3(10) ?
Bi Bi O4 10_6545 . 3_6555 98.5(6) 95.7(6) 99.8(6) ?
Bi Bi O4 10_6545 . 3_6565 132.4(7) 131.4(7) 133.5(7) ?
Bi Bi O4 10_6545 . 4_5555 99.7(9) 95.8(9) 101.7(9) ?
Bi Bi O4 10_6545 . 4_5565 161.1(9) 155.8(9) 166.8(8) ?
Bi Bi O4 10_6545 . 4_6555 63.9(8) 62.1(8) 64.7(8) ?
Bi Bi O4 10_6545 . 4_6565 93.8(7) 93.1(7) 94.9(7) ?
Bi Bi I 10_6555 . . 175.55(6) 171.23(7) 178.80(4) ?
Bi Bi I 10_6555 . 1_5565 110.94(7) 109.06(8) 114.09(9) ?
Bi Bi I 10_6555 . 1_6555 114.37(4) 113.47(4) 114.90(4) ?
Bi Bi I 10_6555 . 1_6565 76.82(5) 75.47(6) 78.99(6) ?
Bi Bi I 10_6555 . 9_5555 50.28(4) 48.28(4) 51.45(5) ?
Bi Bi B 10_6555 . . 173.84(5) 170.56(6) 176.57(3) ?
Bi Bi B 10_6555 . 1_5565 116.12(6) 112.67(7) 117.74(6) ?
Bi Bi B 10_6555 . 1_6555 112.81(4) 112.31(4) 113.89(4) ?
Bi Bi B 10_6555 . 1_6565 80.56(5) 78.33(5) 81.59(5) ?
Bi Bi O1 10_6555 . . 95.6(4) 92.0(4) 100.6(4) ?
Bi Bi O1 10_6555 . 1_6555 37.0(6) 31.9(6) 42.8(6) ?
Bi Bi O1 10_6555 . 10_5545 95.2(3) 90.2(4) 99.7(3) ?
Bi Bi O1 10_6555 . 10_5555 36.57(18) 35.58(17) 38.12(18) ?
Bi Bi O2 10_6555 . 9_5555 51.5(4) 50.2(4) 54.7(4) ?
Bi Bi O2 10_6555 . 2_5555 152.6(5) 148.6(5) 158.7(5) ?
Bi Bi O2 10_6555 . 2_5565 109.2(7) 105.3(6) 111.3(7) ?
Bi Bi O2 10_6555 . 2_6555 102.9(4) 102.0(4) 105.0(4) ?
Bi Bi O2 10_6555 . 2_6565 62.2(6) 60.0(5) 63.2(6) ?
Bi Bi O2 10_6555 . 11_5555 42.2(4) 41.1(3) 44.8(4) ?
Bi Bi O2 10_6555 . 4_5555 154.8(5) 152.2(5) 159.6(5) ?
Bi Bi O2 10_6555 . 4_5565 98.2(5) 95.3(5) 99.7(5) ?
Bi Bi O2 10_6555 . 4_6555 96.1(5) 95.3(5) 97.7(5) ?
Bi Bi O2 10_6555 . 4_6565 58.8(5) 57.4(4) 59.5(5) ?
Bi Bi O3 10_6555 . . 134.5(6) 131.0(6) 137.5(6) ?
Bi Bi O3 10_6555 . 1_6555 86.1(4) 84.3(4) 87.5(4) ?
Bi Bi O3 10_6555 . 2_5555 135.8(5) 133.0(5) 138.1(5) ?
Bi Bi O3 10_6555 . 2_6555 95.9(6) 93.7(6) 97.8(6) ?
Bi Bi O3 10_6555 . 3_5565 159.2(5) 157.1(5) 161.1(5) ?
Bi Bi O3 10_6555 . 3_6565 112.1(7) 110.5(7) 113.4(7) ?
Bi Bi O3 10_6555 . 4_5565 166.6(6) 162.9(6) 169.2(6) ?
Bi Bi O3 10_6555 . 4_6565 98.7(5) 97.3(5) 99.9(5) ?
Bi Bi O4 10_6555 . . 162.8(7) 160.3(7) 164.0(7) ?
Bi Bi O4 10_6555 . 1_5565 115.3(5) 112.0(5) 116.9(5) ?
Bi Bi O4 10_6555 . 2_5555 154.8(8) 153.0(8) 158.0(7) ?
Bi Bi O4 10_6555 . 2_5565 113.3(5) 110.4(5) 114.8(5) ?
Bi Bi O4 10_6555 . 2_6555 122.4(11) 121.7(11) 124.3(10) ?
Bi Bi O4 10_6555 . 2_6565 76.3(11) 73.8(11) 77.5(12) ?
Bi Bi O4 10_6555 . 3_6555 132.4(7) 131.4(7) 133.5(7) ?
Bi Bi O4 10_6555 . 3_6565 98.5(6) 95.8(6) 99.8(6) ?
Bi Bi O4 10_6555 . 4_5555 161.0(9) 155.8(9) 166.8(8) ?
Bi Bi O4 10_6555 . 4_5565 99.8(9) 96.0(9) 101.7(9) ?
Bi Bi O4 10_6555 . 4_6555 93.8(7) 93.1(7) 95.0(7) ?
Bi Bi O4 10_6555 . 4_6565 63.9(8) 62.2(8) 64.7(8) ?
I Bi I . . 1_5565 68.67(6) 68.66(6) 68.68(7) ?
I Bi I . . 1_6555 66.90(5) 65.81(5) 68.82(5) ?
I Bi I . . 1_6565 104.16(6) 103.98(8) 104.48(5) ?
I Bi I . . 9_5555 127.05(5) 124.78(4) 129.57(5) ?
I Bi B . . . 0.89(4) 0.87(4) 0.92(4) ?
I Bi B . . 1_5565 68.08(4) 67.73(3) 68.70(5) ?
I Bi B . . 1_6555 68.68(5) 68.14(5) 69.23(5) ?
I Bi B . . 1_6565 105.41(5) 103.98(4) 107.02(5) ?
I Bi O1 . . . 79.0(4) 77.3(4) 83.0(4) ?
I Bi O1 . . 1_6555 138.9(6) 135.0(6) 148.1(6) ?
I Bi O1 . . 10_5545 79.0(3) 76.8(3) 83.5(4) ?
I Bi O1 . . 10_5555 144.19(14) 141.14(16) 145.51(12) ?
I Bi O2 . . 9_5555 118.5(4) 118.2(5) 119.1(4) ?
I Bi O2 . . 2_5555 21.6(5) 21.6(5) 21.6(5) ?
I Bi O2 . . 2_5565 72.4(7) 72.0(7) 73.3(7) ?
I Bi O2 . . 2_6555 77.7(4) 77.7(4) 77.7(4) ?
I Bi O2 . . 2_6565 123.1(6) 121.2(6) 125.3(6) ?
I Bi O2 . . 11_5555 128.6(4) 128.5(4) 129.0(4) ?
I Bi O2 . . 4_5555 19.3(5) 19.3(5) 19.3(5) ?
I Bi O2 . . 4_5565 84.5(5) 84.0(5) 85.1(5) ?
I Bi O2 . . 4_6555 82.6(5) 82.6(5) 82.6(5) ?
I Bi O2 . . 4_6565 127.6(5) 125.8(5) 129.2(5) ?
I Bi O3 . . 3_5565 21.5(5) 21.5(5) 21.5(5) ?
I Bi O3 . . 3_6565 71.5(7) 71.5(7) 71.5(7) ?
I Bi O3 . . 4_5565 18.5(5) 18.5(5) 18.5(5) ?
I Bi O3 . . 4_6565 84.5(5) 84.5(5) 84.5(5) ?
I Bi O4 . . . 20.9(7) 20.7(7) 21.0(7) ?
I Bi O4 . . 1_5565 70.6(5) 70.0(4) 71.4(5) ?
I Bi O4 . . 2_5555 19.9(7) 19.6(7) 20.3(8) ?
I Bi O4 . . 2_5565 68.7(5) 68.5(4) 69.1(5) ?
I Bi O4 . . 2_6555 57.8(10) 57.3(10) 58.3(10) ?
I Bi O4 . . 2_6565 109.8(11) 108.1(11) 111.6(12) ?
I Bi O4 . . 3_6555 50.2(7) 50.0(7) 50.5(7) ?
I Bi O4 . . 3_6565 87.8(6) 86.8(6) 89.1(6) ?
I Bi O4 . . 4_5555 17.1(8) 15.8(8) 18.3(8) ?
I Bi O4 . . 4_5565 84.5(9) 83.7(9) 85.6(9) ?
I Bi O4 . . 4_6555 86.9(6) 86.0(6) 87.8(6) ?
I Bi O4 . . 4_6565 121.4(8) 119.9(7) 123.2(8) ?
I Bi I 1_5565 . 1_6555 104.16(6) 103.98(8) 104.48(5) ?
I Bi I 1_5565 . 1_6565 66.92(5) 65.81(5) 68.69(5) ?
I Bi I 1_5565 . 9_5555 127.05(5) 124.76(4) 129.52(5) ?
I Bi B 1_5565 . . 68.07(4) 67.73(3) 68.69(5) ?
I Bi B 1_5565 . 1_6555 105.38(5) 103.97(4) 106.99(5) ?
I Bi O1 1_5565 . . 79.0(4) 77.3(4) 82.8(4) ?
I Bi O1 1_5565 . 1_6555 139.0(6) 135.0(6) 147.8(6) ?
I Bi O1 1_5565 . 10_5545 144.16(14) 141.25(16) 145.51(12) ?
I Bi O1 1_5565 . 10_5555 79.0(3) 76.8(3) 83.4(4) ?
I Bi O2 1_5565 . 9_5555 128.6(4) 128.5(4) 128.9(4) ?
I Bi O2 1_5565 . 2_5555 84.5(5) 84.0(5) 85.1(5) ?
I Bi O2 1_5565 . 2_6555 127.6(5) 125.8(5) 129.2(5) ?
I Bi O2 1_5565 . 11_5555 118.5(4) 118.2(5) 119.1(4) ?
I Bi O2 1_5565 . 4_5555 72.4(7) 72.0(7) 73.3(7) ?
I Bi O2 1_5565 . 4_6555 123.1(6) 121.3(6) 125.3(6) ?
I Bi O4 1_5565 . . 70.5(5) 70.0(4) 71.3(5) ?
I Bi O4 1_5565 . 2_5555 68.7(5) 68.5(4) 69.0(5) ?
I Bi O4 1_5565 . 2_6555 109.8(11) 108.1(11) 111.6(12) ?
I Bi O4 1_5565 . 3_6555 87.8(6) 86.8(6) 89.1(6) ?
I Bi O4 1_5565 . 4_5555 84.5(9) 83.7(9) 85.6(9) ?
I Bi O4 1_5565 . 4_6555 121.4(8) 119.9(7) 123.1(8) ?
I Bi I 1_6555 . 1_6565 68.67(6) 68.66(6) 68.68(7) ?
I Bi I 1_6555 . 9_5555 127.05(5) 124.78(4) 129.57(5) ?
I Bi B 1_6555 . . 68.68(5) 68.14(5) 69.23(5) ?
I Bi B 1_6555 . 1_5565 105.41(5) 103.98(4) 107.02(5) ?
I Bi B 1_6555 . 1_6555 0.89(4) 0.87(4) 0.92(4) ?
I Bi B 1_6555 . 1_6565 68.08(4) 67.73(3) 68.70(5) ?
I Bi O1 1_6555 . . 138.9(6) 135.0(6) 148.1(6) ?
I Bi O1 1_6555 . 1_6555 79.0(4) 77.3(4) 83.0(4) ?
I Bi O1 1_6555 . 10_5545 79.0(3) 76.8(3) 83.5(4) ?
I Bi O1 1_6555 . 10_5555 144.19(14) 141.14(16) 145.51(12) ?
I Bi O2 1_6555 . 9_5555 118.5(4) 118.2(5) 119.1(4) ?
I Bi O2 1_6555 . 2_5555 77.7(4) 77.7(4) 77.7(4) ?
I Bi O2 1_6555 . 2_5565 123.1(6) 121.2(6) 125.3(6) ?
I Bi O2 1_6555 . 2_6555 21.6(5) 21.6(5) 21.6(5) ?
I Bi O2 1_6555 . 2_6565 72.4(7) 72.0(7) 73.3(7) ?
I Bi O2 1_6555 . 11_5555 128.6(4) 128.5(4) 129.0(4) ?
I Bi O2 1_6555 . 4_5555 82.6(5) 82.6(5) 82.6(5) ?
I Bi O2 1_6555 . 4_5565 127.6(5) 125.8(5) 129.2(5) ?
I Bi O2 1_6555 . 4_6555 19.3(5) 19.3(5) 19.3(5) ?
I Bi O2 1_6555 . 4_6565 84.5(5) 84.0(5) 85.1(5) ?
I Bi O3 1_6555 . 3_5565 84.5(5) 84.5(5) 84.5(5) ?
I Bi O3 1_6555 . 3_6565 18.5(5) 18.5(5) 18.5(5) ?
I Bi O3 1_6555 . 4_5565 71.5(7) 71.5(7) 71.5(7) ?
I Bi O3 1_6555 . 4_6565 21.5(5) 21.5(5) 21.5(5) ?
I Bi O4 1_6555 . . 50.2(7) 50.0(7) 50.5(7) ?
I Bi O4 1_6555 . 1_5565 87.8(6) 86.8(6) 89.1(6) ?
I Bi O4 1_6555 . 2_5555 86.9(6) 86.0(6) 87.8(6) ?
I Bi O4 1_6555 . 2_5565 121.4(8) 119.9(7) 123.2(8) ?
I Bi O4 1_6555 . 2_6555 17.1(8) 15.8(8) 18.3(8) ?
I Bi O4 1_6555 . 2_6565 84.5(9) 83.7(9) 85.6(9) ?
I Bi O4 1_6555 . 3_6555 20.9(7) 20.7(7) 21.0(7) ?
I Bi O4 1_6555 . 3_6565 70.6(5) 70.0(4) 71.4(5) ?
I Bi O4 1_6555 . 4_5555 57.8(10) 57.3(10) 58.3(10) ?
I Bi O4 1_6555 . 4_5565 109.8(11) 108.1(11) 111.6(12) ?
I Bi O4 1_6555 . 4_6555 19.9(7) 19.6(7) 20.3(8) ?
I Bi O4 1_6555 . 4_6565 68.7(5) 68.5(4) 69.1(5) ?
I Bi I 1_6565 . 9_5555 127.05(5) 124.76(4) 129.52(5) ?
I Bi B 1_6565 . . 105.38(5) 103.97(4) 106.99(5) ?
I Bi B 1_6565 . 1_6555 68.07(4) 67.73(3) 68.69(5) ?
I Bi O1 1_6565 . . 139.0(6) 135.0(6) 147.8(6) ?
I Bi O1 1_6565 . 1_6555 79.0(4) 77.3(4) 82.8(4) ?
I Bi O1 1_6565 . 10_5545 144.16(14) 141.25(16) 145.51(12) ?
I Bi O1 1_6565 . 10_5555 79.0(3) 76.8(3) 83.4(4) ?
I Bi O2 1_6565 . 9_5555 128.6(4) 128.5(4) 128.9(4) ?
I Bi O2 1_6565 . 2_5555 127.6(5) 125.8(5) 129.2(5) ?
I Bi O2 1_6565 . 2_6555 84.5(5) 84.0(5) 85.1(5) ?
I Bi O2 1_6565 . 11_5555 118.5(4) 118.2(5) 119.1(4) ?
I Bi O2 1_6565 . 4_5555 123.1(6) 121.3(6) 125.3(6) ?
I Bi O2 1_6565 . 4_6555 72.4(7) 72.0(7) 73.3(7) ?
I Bi O4 1_6565 . . 87.8(6) 86.8(6) 89.1(6) ?
I Bi O4 1_6565 . 2_5555 121.4(8) 119.9(7) 123.1(8) ?
I Bi O4 1_6565 . 2_6555 84.5(9) 83.7(9) 85.6(9) ?
I Bi O4 1_6565 . 3_6555 70.5(5) 70.0(4) 71.3(5) ?
I Bi O4 1_6565 . 4_5555 109.8(11) 108.1(11) 111.6(12) ?
I Bi O4 1_6565 . 4_6555 68.7(5) 68.5(4) 69.0(5) ?
I Bi B 9_5555 . . 129.97(4) 129.64(4) 130.10(4) ?
I Bi B 9_5555 . 1_5565 129.99(4) 129.72(4) 130.10(4) ?
I Bi B 9_5555 . 1_6555 129.97(4) 129.64(4) 130.10(4) ?
I Bi B 9_5555 . 1_6565 129.99(4) 129.72(4) 130.10(4) ?
I Bi O1 9_5555 . . 59.58(19) 57.50(19) 61.1(2) ?
I Bi O1 9_5555 . 1_6555 59.58(19) 57.50(19) 61.1(2) ?
I Bi O1 9_5555 . 10_5545 58.5(4) 56.6(5) 58.9(4) ?
I Bi O1 9_5555 . 10_5555 58.5(4) 56.7(5) 58.9(4) ?
I Bi O2 9_5555 . 2_5555 108.2(5) 107.6(5) 108.4(5) ?
I Bi O2 9_5555 . 2_5565 111.4(6) 110.9(6) 111.8(6) ?
I Bi O2 9_5555 . 2_6555 108.2(5) 107.6(5) 108.4(5) ?
I Bi O2 9_5555 . 2_6565 111.4(6) 110.9(6) 111.8(6) ?
I Bi O2 9_5555 . 4_5555 111.4(6) 110.7(6) 111.8(6) ?
I Bi O2 9_5555 . 4_5565 108.2(5) 107.7(5) 108.4(5) ?
I Bi O2 9_5555 . 4_6555 111.4(6) 110.7(6) 111.8(6) ?
I Bi O2 9_5555 . 4_6565 108.2(5) 107.7(5) 108.4(5) ?
I Bi O4 9_5555 . . 147.0(6) 146.7(6) 147.1(6) ?
I Bi O4 9_5555 . 1_5565 147.0(6) 146.8(6) 147.1(6) ?
I Bi O4 9_5555 . 2_5555 111.8(8) 111.4(8) 112.1(8) ?
I Bi O4 9_5555 . 2_5565 111.8(8) 111.5(8) 112.1(8) ?
I Bi O4 9_5555 . 2_6555 124.9(11) 124.4(11) 125.1(11) ?
I Bi O4 9_5555 . 2_6565 124.9(11) 124.5(11) 125.1(11) ?
I Bi O4 9_5555 . 3_6555 147.0(6) 146.7(6) 147.1(6) ?
I Bi O4 9_5555 . 3_6565 147.0(6) 146.8(6) 147.1(6) ?
I Bi O4 9_5555 . 4_5555 124.9(11) 124.4(11) 125.1(11) ?
I Bi O4 9_5555 . 4_5565 124.9(11) 124.5(11) 125.1(11) ?
I Bi O4 9_5555 . 4_6555 111.8(8) 111.4(8) 112.1(8) ?
I Bi O4 9_5555 . 4_6565 111.8(8) 111.5(8) 112.1(8) ?
B Bi B . . 1_5565 69.87(4) 69.57(4) 70.03(5) ?
B Bi B . . 1_6555 70.25(5) 67.71(5) 71.37(5) ?
B Bi B . . 1_6565 107.99(6) 107.43(4) 108.29(8) ?
B Bi O1 . . . 82.3(4) 79.5(4) 84.2(4) ?
B Bi O1 . . 1_6555 146.5(6) 138.3(6) 151.0(6) ?
B Bi O1 . . 10_5545 83.4(3) 77.6(3) 86.1(4) ?
B Bi O1 . . 10_5555 141.75(13) 139.60(15) 145.31(10) ?
B Bi O2 . . 9_5555 122.3(4) 118.5(4) 126.0(4) ?
B Bi O2 . . 2_5555 22.5(5) 21.8(5) 22.8(5) ?
B Bi O2 . . 2_5565 74.9(6) 74.1(7) 75.2(6) ?
B Bi O2 . . 2_6555 78.5(4) 75.0(3) 80.1(4) ?
B Bi O2 . . 2_6565 126.4(6) 125.6(6) 126.8(6) ?
B Bi O2 . . 11_5555 131.6(4) 128.6(4) 134.8(3) ?
B Bi O2 . . 4_5555 19.7(5) 19.1(5) 20.0(5) ?
B Bi O2 . . 4_5565 86.0(5) 85.5(5) 86.2(5) ?
B Bi O2 . . 4_6555 86.0(5) 82.0(5) 87.8(5) ?
B Bi O2 . . 4_6565 129.6(5) 128.3(4) 130.1(5) ?
B Bi O3 . . . 51.4(6) 50.2(6) 52.1(6) ?
B Bi O3 . . 1_6555 100.9(4) 99.6(4) 101.5(4) ?
B Bi O3 . . 2_5555 48.0(5) 47.4(5) 48.3(5) ?
B Bi O3 . . 2_6555 91.7(6) 90.2(6) 92.3(6) ?
B Bi O3 . . 3_5565 22.8(5) 22.3(5) 23.2(5) ?
B Bi O3 . . 3_6565 73.3(7) 71.3(7) 74.7(7) ?
B Bi O3 . . 4_5565 20.2(6) 19.3(5) 21.1(6) ?
B Bi O3 . . 4_6565 86.3(5) 84.3(5) 87.6(5) ?
B Bi O4 . . . 21.3(7) 20.7(7) 21.6(7) ?
B Bi O4 . . 1_5565 72.5(5) 72.2(5) 72.7(5) ?
B Bi O4 . . 2_5555 20.2(8) 19.6(7) 20.5(8) ?
B Bi O4 . . 2_5565 70.0(5) 69.7(5) 70.1(5) ?
B Bi O4 . . 2_6555 59.3(11) 56.6(10) 60.5(11) ?
B Bi O4 . . 2_6565 112.5(11) 111.5(11) 112.9(11) ?
B Bi O4 . . 3_6555 51.3(7) 49.7(7) 52.0(7) ?
B Bi O4 . . 3_6565 90.1(6) 89.7(6) 90.4(7) ?
B Bi O4 . . 4_5555 17.3(9) 16.7(8) 17.6(9) ?
B Bi O4 . . 4_5565 87.0(9) 86.5(9) 87.3(9) ?
B Bi O4 . . 4_6555 88.7(6) 85.4(6) 90.2(6) ?
B Bi O4 . . 4_6565 124.1(8) 123.4(8) 124.4(8) ?
B Bi B 1_5565 . 1_6555 107.99(6) 107.43(4) 108.29(8) ?
B Bi B 1_5565 . 1_6565 70.29(5) 67.84(5) 71.37(4) ?
B Bi O1 1_5565 . . 82.4(4) 79.6(4) 84.2(4) ?
B Bi O1 1_5565 . 1_6555 146.6(6) 138.6(6) 151.0(6) ?
B Bi O1 1_5565 . 10_5545 141.70(13) 139.60(15) 145.23(10) ?
B Bi O1 1_5565 . 10_5555 83.5(3) 77.8(3) 86.1(4) ?
B Bi O2 1_5565 . 9_5555 131.7(4) 128.6(4) 134.9(3) ?
B Bi O2 1_5565 . 2_5555 86.0(5) 85.5(5) 86.2(5) ?
B Bi O2 1_5565 . 2_5565 19.7(5) 19.1(5) 20.0(5) ?
B Bi O2 1_5565 . 2_6555 129.6(5) 128.3(4) 130.1(5) ?
B Bi O2 1_5565 . 2_6565 86.1(5) 82.2(5) 87.8(5) ?
B Bi O2 1_5565 . 11_5555 122.5(4) 118.7(4) 126.1(4) ?
B Bi O2 1_5565 . 4_5555 74.9(6) 74.2(7) 75.2(6) ?
B Bi O2 1_5565 . 4_5565 22.5(5) 21.8(5) 22.8(5) ?
B Bi O2 1_5565 . 4_6555 126.4(6) 125.7(6) 126.8(6) ?
B Bi O2 1_5565 . 4_6565 78.5(4) 75.0(3) 80.1(4) ?
B Bi O3 1_5565 . . 20.2(6) 19.3(5) 21.1(6) ?
B Bi O3 1_5565 . 1_6555 86.4(5) 84.4(5) 87.7(5) ?
B Bi O3 1_5565 . 2_5555 22.9(5) 22.3(5) 23.3(5) ?
B Bi O3 1_5565 . 2_6555 73.4(7) 71.5(7) 74.8(7) ?
B Bi O3 1_5565 . 3_5565 48.1(5) 47.5(5) 48.3(5) ?
B Bi O3 1_5565 . 3_6565 91.7(6) 90.4(6) 92.3(6) ?
B Bi O3 1_5565 . 4_5565 51.4(6) 50.3(6) 52.1(6) ?
B Bi O3 1_5565 . 4_6565 101.0(4) 99.7(4) 101.5(4) ?
B Bi O4 1_5565 . . 72.5(5) 72.1(5) 72.7(5) ?
B Bi O4 1_5565 . 1_5565 21.3(7) 20.7(7) 21.6(7) ?
B Bi O4 1_5565 . 2_5555 70.0(5) 69.7(5) 70.1(5) ?
B Bi O4 1_5565 . 2_5565 20.2(8) 19.6(7) 20.5(8) ?
B Bi O4 1_5565 . 2_6555 112.4(11) 111.3(11) 112.9(11) ?
B Bi O4 1_5565 . 2_6565 59.4(11) 56.8(10) 60.5(11) ?
B Bi O4 1_5565 . 3_6555 90.1(6) 89.7(6) 90.4(7) ?
B Bi O4 1_5565 . 3_6565 51.3(7) 49.8(7) 52.0(7) ?
B Bi O4 1_5565 . 4_5555 87.0(9) 86.6(9) 87.3(9) ?
B Bi O4 1_5565 . 4_5565 17.3(9) 16.7(8) 17.6(9) ?
B Bi O4 1_5565 . 4_6555 124.1(8) 123.5(8) 124.4(8) ?
B Bi O4 1_5565 . 4_6565 88.8(6) 85.6(6) 90.2(6) ?
B Bi B 1_6555 . 1_6565 69.87(4) 69.57(4) 70.03(5) ?
B Bi O1 1_6555 . . 146.5(6) 138.3(6) 151.0(6) ?
B Bi O1 1_6555 . 1_6555 82.3(4) 79.5(4) 84.2(4) ?
B Bi O1 1_6555 . 10_5545 83.4(3) 77.6(3) 86.1(4) ?
B Bi O1 1_6555 . 10_5555 141.75(13) 139.60(15) 145.31(10) ?
B Bi O2 1_6555 . 9_5555 122.3(4) 118.5(4) 126.0(4) ?
B Bi O2 1_6555 . 2_5555 78.5(4) 75.0(3) 80.1(4) ?
B Bi O2 1_6555 . 2_5565 126.4(6) 125.6(6) 126.8(6) ?
B Bi O2 1_6555 . 2_6555 22.5(5) 21.8(5) 22.8(5) ?
B Bi O2 1_6555 . 2_6565 74.9(6) 74.1(7) 75.2(6) ?
B Bi O2 1_6555 . 11_5555 131.6(4) 128.6(4) 134.8(3) ?
B Bi O2 1_6555 . 4_5555 86.0(5) 82.0(5) 87.8(5) ?
B Bi O2 1_6555 . 4_5565 129.6(5) 128.3(4) 130.1(5) ?
B Bi O2 1_6555 . 4_6555 19.7(5) 19.1(5) 20.0(5) ?
B Bi O2 1_6555 . 4_6565 86.0(5) 85.5(5) 86.2(5) ?
B Bi O3 1_6555 . . 91.7(6) 90.2(6) 92.3(6) ?
B Bi O3 1_6555 . 1_6555 48.0(5) 47.4(5) 48.3(5) ?
B Bi O3 1_6555 . 2_5555 100.9(4) 99.6(4) 101.5(4) ?
B Bi O3 1_6555 . 2_6555 51.4(6) 50.2(6) 52.1(6) ?
B Bi O3 1_6555 . 3_5565 86.3(5) 84.3(5) 87.6(5) ?
B Bi O3 1_6555 . 3_6565 20.2(6) 19.3(5) 21.1(6) ?
B Bi O3 1_6555 . 4_5565 73.3(7) 71.3(7) 74.7(7) ?
B Bi O3 1_6555 . 4_6565 22.8(5) 22.3(5) 23.2(5) ?
B Bi O4 1_6555 . . 51.3(7) 49.7(7) 52.0(7) ?
B Bi O4 1_6555 . 1_5565 90.1(6) 89.7(6) 90.4(7) ?
B Bi O4 1_6555 . 2_5555 88.7(6) 85.4(6) 90.2(6) ?
B Bi O4 1_6555 . 2_5565 124.1(8) 123.4(8) 124.4(8) ?
B Bi O4 1_6555 . 2_6555 17.3(9) 16.7(8) 17.6(9) ?
B Bi O4 1_6555 . 2_6565 87.0(9) 86.5(9) 87.3(9) ?
B Bi O4 1_6555 . 3_6555 21.3(7) 20.7(7) 21.6(7) ?
B Bi O4 1_6555 . 3_6565 72.5(5) 72.2(5) 72.7(5) ?
B Bi O4 1_6555 . 4_5555 59.3(11) 56.6(10) 60.5(11) ?
B Bi O4 1_6555 . 4_5565 112.5(11) 111.5(11) 112.9(11) ?
B Bi O4 1_6555 . 4_6555 20.2(8) 19.6(7) 20.5(8) ?
B Bi O4 1_6555 . 4_6565 70.0(5) 69.7(5) 70.1(5) ?
B Bi O1 1_6565 . . 146.6(6) 138.6(6) 151.0(6) ?
B Bi O1 1_6565 . 1_6555 82.4(4) 79.6(4) 84.2(4) ?
B Bi O1 1_6565 . 10_5545 141.70(13) 139.60(15) 145.23(10) ?
B Bi O1 1_6565 . 10_5555 83.5(3) 77.8(3) 86.1(4) ?
B Bi O2 1_6565 . 9_5555 131.7(4) 128.6(4) 134.9(3) ?
B Bi O2 1_6565 . 2_5555 129.6(5) 128.3(4) 130.1(5) ?
B Bi O2 1_6565 . 2_5565 86.1(5) 82.2(5) 87.8(5) ?
B Bi O2 1_6565 . 2_6555 86.0(5) 85.5(5) 86.2(5) ?
B Bi O2 1_6565 . 2_6565 19.7(5) 19.1(5) 20.0(5) ?
B Bi O2 1_6565 . 11_5555 122.5(4) 118.7(4) 126.1(4) ?
B Bi O2 1_6565 . 4_5555 126.4(6) 125.7(6) 126.8(6) ?
B Bi O2 1_6565 . 4_5565 78.5(4) 75.0(3) 80.1(4) ?
B Bi O2 1_6565 . 4_6555 74.9(6) 74.2(7) 75.2(6) ?
B Bi O2 1_6565 . 4_6565 22.5(5) 21.8(5) 22.8(5) ?
B Bi O3 1_6565 . . 73.4(7) 71.5(7) 74.8(7) ?
B Bi O3 1_6565 . 1_6555 22.9(5) 22.3(5) 23.3(5) ?
B Bi O3 1_6565 . 2_5555 86.4(5) 84.4(5) 87.7(5) ?
B Bi O3 1_6565 . 2_6555 20.2(6) 19.3(5) 21.1(6) ?
B Bi O3 1_6565 . 3_5565 101.0(4) 99.7(4) 101.5(4) ?
B Bi O3 1_6565 . 3_6565 51.4(6) 50.3(6) 52.1(6) ?
B Bi O3 1_6565 . 4_5565 91.7(6) 90.4(6) 92.3(6) ?
B Bi O3 1_6565 . 4_6565 48.1(5) 47.5(5) 48.3(5) ?
B Bi O4 1_6565 . . 90.1(6) 89.7(6) 90.4(7) ?
B Bi O4 1_6565 . 1_5565 51.3(7) 49.8(7) 52.0(7) ?
B Bi O4 1_6565 . 2_5555 124.1(8) 123.5(8) 124.4(8) ?
B Bi O4 1_6565 . 2_5565 88.8(6) 85.6(6) 90.2(6) ?
B Bi O4 1_6565 . 2_6555 87.0(9) 86.6(9) 87.3(9) ?
B Bi O4 1_6565 . 2_6565 17.3(9) 16.7(8) 17.6(9) ?
B Bi O4 1_6565 . 3_6555 72.5(5) 72.1(5) 72.7(5) ?
B Bi O4 1_6565 . 3_6565 21.3(7) 20.7(7) 21.6(7) ?
B Bi O4 1_6565 . 4_5555 112.4(11) 111.3(11) 112.9(11) ?
B Bi O4 1_6565 . 4_5565 59.4(11) 56.8(10) 60.5(11) ?
B Bi O4 1_6565 . 4_6555 70.0(5) 69.7(5) 70.1(5) ?
B Bi O4 1_6565 . 4_6565 20.2(8) 19.6(7) 20.5(8) ?
O1 Bi O1 . . 1_6555 115.9(5) 113.0(3) 122.2(8) ?
O1 Bi O1 . . 10_5545 73.5(4) 69.4(4) 78.6(5) ?
O1 Bi O1 . . 10_5555 73.6(4) 69.4(4) 78.6(5) ?
O1 Bi O2 . . 9_5555 57.0(4) 56.5(2) 58.0(5) ?
O1 Bi O2 . . 2_5555 69.3(5) 65.9(6) 71.7(5) ?
O1 Bi O2 . . 2_5565 63.9(6) 61.4(6) 65.7(6) ?
O1 Bi O2 . . 2_6555 134.8(6) 126.3(7) 140.4(7) ?
O1 Bi O2 . . 2_6565 146.5(8) 136.9(8) 152.9(8) ?
O1 Bi O2 . . 11_5555 57.0(4) 56.5(3) 58.1(5) ?
O1 Bi O2 . . 4_5555 63.8(6) 61.4(6) 65.7(6) ?
O1 Bi O2 . . 4_5565 69.3(5) 65.8(6) 71.7(5) ?
O1 Bi O2 . . 4_6555 146.3(8) 136.6(8) 152.9(8) ?
O1 Bi O2 . . 4_6565 134.8(6) 126.2(7) 140.4(7) ?
O1 Bi O3 . . . 86.9(8) 86.2(7) 87.9(7) ?
O1 Bi O3 . . 1_6555 165.7(6) 160.9(7) 170.1(6) ?
O1 Bi O3 . . 2_5555 73.4(7) 73.0(5) 74.1(5) ?
O1 Bi O3 . . 2_6555 154.3(8) 150.5(8) 157.5(8) ?
O1 Bi O3 . . 3_5565 73.4(7) 73.0(5) 74.1(5) ?
O1 Bi O3 . . 3_6565 154.1(8) 150.2(8) 157.3(8) ?
O1 Bi O3 . . 4_5565 86.9(8) 86.2(7) 87.8(7) ?
O1 Bi O3 . . 4_6565 165.4(6) 160.5(7) 169.9(6) ?
O1 Bi O4 . . . 103.5(8) 100.2(8) 105.4(8) ?
O1 Bi O4 . . 1_5565 103.6(8) 100.3(8) 105.4(8) ?
O1 Bi O4 . . 2_5555 62.3(8) 59.9(8) 64.0(8) ?
O1 Bi O4 . . 2_5565 62.3(8) 59.9(8) 63.9(8) ?
O1 Bi O4 . . 2_6555 129.4(9) 120.9(10) 134.5(9) ?
O1 Bi O4 . . 2_6565 129.6(9) 121.2(10) 134.5(9) ?
O1 Bi O4 . . 3_6555 132.9(8) 127.5(7) 135.8(8) ?
O1 Bi O4 . . 3_6565 133.0(8) 127.7(7) 135.8(8) ?
O1 Bi O4 . . 4_5555 89.1(12) 84.8(11) 92.0(12) ?
O1 Bi O4 . . 4_5565 89.2(12) 84.9(11) 92.0(12) ?
O1 Bi O4 . . 4_6555 150.8(6) 142.1(7) 156.5(6) ?
O1 Bi O4 . . 4_6565 150.9(6) 142.4(7) 156.5(6) ?
O1 Bi O1 1_6555 . 10_5545 73.5(4) 69.4(4) 78.6(5) ?
O1 Bi O1 1_6555 . 10_5555 73.6(4) 69.4(4) 78.6(5) ?
O1 Bi O2 1_6555 . 9_5555 57.0(4) 56.5(2) 58.0(5) ?
O1 Bi O2 1_6555 . 2_5555 134.8(6) 126.3(7) 140.4(7) ?
O1 Bi O2 1_6555 . 2_5565 146.5(8) 136.9(8) 152.9(8) ?
O1 Bi O2 1_6555 . 2_6555 69.3(5) 65.9(6) 71.7(5) ?
O1 Bi O2 1_6555 . 2_6565 63.9(6) 61.4(6) 65.7(6) ?
O1 Bi O2 1_6555 . 11_5555 57.0(4) 56.5(3) 58.1(5) ?
O1 Bi O2 1_6555 . 4_5555 146.3(8) 136.6(8) 152.9(8) ?
O1 Bi O2 1_6555 . 4_5565 134.8(6) 126.2(7) 140.4(7) ?
O1 Bi O2 1_6555 . 4_6555 63.8(6) 61.4(6) 65.7(6) ?
O1 Bi O2 1_6555 . 4_6565 69.3(5) 65.8(6) 71.7(5) ?
O1 Bi O3 1_6555 . . 154.3(8) 150.5(8) 157.5(8) ?
O1 Bi O3 1_6555 . 1_6555 73.4(7) 73.0(5) 74.1(5) ?
O1 Bi O3 1_6555 . 2_5555 165.7(6) 160.9(7) 170.1(6) ?
O1 Bi O3 1_6555 . 2_6555 86.9(8) 86.2(7) 87.9(7) ?
O1 Bi O3 1_6555 . 3_5565 165.4(6) 160.5(7) 169.9(6) ?
O1 Bi O3 1_6555 . 3_6565 86.9(8) 86.2(7) 87.8(7) ?
O1 Bi O3 1_6555 . 4_5565 154.1(8) 150.2(8) 157.3(8) ?
O1 Bi O3 1_6555 . 4_6565 73.4(7) 73.0(5) 74.1(5) ?
O1 Bi O4 1_6555 . . 132.9(8) 127.5(7) 135.8(8) ?
O1 Bi O4 1_6555 . 1_5565 133.0(8) 127.7(7) 135.8(8) ?
O1 Bi O4 1_6555 . 2_5555 150.8(6) 142.1(7) 156.5(6) ?
O1 Bi O4 1_6555 . 2_5565 150.9(6) 142.4(7) 156.5(6) ?
O1 Bi O4 1_6555 . 2_6555 89.1(12) 84.8(11) 92.0(12) ?
O1 Bi O4 1_6555 . 2_6565 89.2(12) 84.9(11) 92.0(12) ?
O1 Bi O4 1_6555 . 3_6555 103.5(8) 100.2(8) 105.4(8) ?
O1 Bi O4 1_6555 . 3_6565 103.6(8) 100.3(8) 105.4(8) ?
O1 Bi O4 1_6555 . 4_5555 129.4(9) 120.9(10) 134.5(9) ?
O1 Bi O4 1_6555 . 4_5565 129.6(9) 121.2(10) 134.5(9) ?
O1 Bi O4 1_6555 . 4_6555 62.3(8) 59.9(8) 64.0(8) ?
O1 Bi O4 1_6555 . 4_6565 62.3(8) 59.9(8) 63.9(8) ?
O1 Bi O1 10_5545 . 10_5555 115.1(6) 111.8(5) 117.7(6) ?
O1 Bi O2 10_5545 . 9_5555 49.8(7) 49.0(7) 51.2(7) ?
O1 Bi O2 10_5545 . 2_5555 63.0(6) 58.2(6) 65.2(6) ?
O1 Bi O2 10_5545 . 2_5565 130.4(5) 129.3(6) 132.6(5) ?
O1 Bi O2 10_5545 . 2_6555 63.0(6) 58.2(6) 65.2(6) ?
O1 Bi O2 10_5545 . 2_6565 130.4(5) 129.3(6) 132.6(5) ?
O1 Bi O2 10_5545 . 11_5555 63.4(7) 62.4(7) 64.9(7) ?
O1 Bi O2 10_5545 . 4_5555 73.0(7) 67.3(7) 75.9(7) ?
O1 Bi O2 10_5545 . 4_5565 139.2(4) 139.0(4) 140.1(4) ?
O1 Bi O2 10_5545 . 4_6555 73.0(7) 67.3(7) 75.9(7) ?
O1 Bi O2 10_5545 . 4_6565 139.2(4) 139.0(4) 140.1(4) ?
O1 Bi O3 10_5545 . . 131.2(7) 127.0(7) 134.9(8) ?
O1 Bi O3 10_5545 . 1_6555 122.0(6) 118.9(6) 124.9(6) ?
O1 Bi O3 10_5545 . 2_5555 122.0(6) 118.9(6) 124.9(6) ?
O1 Bi O3 10_5545 . 2_6555 131.2(7) 127.0(7) 134.9(8) ?
O1 Bi O3 10_5545 . 3_5565 99.2(5) 95.6(5) 102.7(6) ?
O1 Bi O3 10_5545 . 3_6565 101.4(7) 96.9(7) 105.8(8) ?
O1 Bi O3 10_5545 . 4_5565 101.4(7) 96.9(7) 105.8(8) ?
O1 Bi O3 10_5545 . 4_6565 99.2(5) 95.6(5) 102.7(6) ?
O1 Bi O4 10_5545 . . 91.0(7) 84.6(7) 93.9(6) ?
O1 Bi O4 10_5545 . 1_5565 150.9(6) 147.0(5) 157.0(8) ?
O1 Bi O4 10_5545 . 2_5555 76.9(6) 72.3(6) 79.1(6) ?
O1 Bi O4 10_5545 . 2_5565 127.0(5) 126.0(5) 129.0(6) ?
O1 Bi O4 10_5545 . 2_6555 69.9(11) 63.4(10) 73.0(11) ?
O1 Bi O4 10_5545 . 2_6565 156.7(10) 155.7(9) 158.0(10) ?
O1 Bi O4 10_5545 . 3_6555 91.0(7) 84.6(7) 93.9(6) ?
O1 Bi O4 10_5545 . 3_6565 150.9(6) 147.0(5) 157.0(8) ?
O1 Bi O4 10_5545 . 4_5555 69.9(11) 63.4(10) 73.0(11) ?
O1 Bi O4 10_5545 . 4_5565 156.7(10) 155.7(9) 158.0(10) ?
O1 Bi O4 10_5545 . 4_6555 76.9(6) 72.3(6) 79.1(6) ?
O1 Bi O4 10_5545 . 4_6565 127.0(5) 126.0(5) 129.0(6) ?
O1 Bi O2 10_5555 . 9_5555 63.4(7) 62.4(7) 65.1(7) ?
O1 Bi O2 10_5555 . 2_5555 139.2(4) 139.0(4) 140.2(4) ?
O1 Bi O2 10_5555 . 2_5565 73.1(7) 67.4(7) 75.9(7) ?
O1 Bi O2 10_5555 . 2_6555 139.2(4) 139.0(4) 140.2(4) ?
O1 Bi O2 10_5555 . 2_6565 73.1(7) 67.4(7) 75.9(7) ?
O1 Bi O2 10_5555 . 11_5555 49.8(7) 49.0(7) 51.4(7) ?
O1 Bi O2 10_5555 . 4_5555 130.4(5) 129.3(6) 132.7(5) ?
O1 Bi O2 10_5555 . 4_5565 63.0(6) 58.1(6) 65.2(6) ?
O1 Bi O2 10_5555 . 4_6555 130.4(5) 129.3(6) 132.7(5) ?
O1 Bi O2 10_5555 . 4_6565 63.0(6) 58.1(6) 65.2(6) ?
O1 Bi O3 10_5555 . . 101.7(7) 97.1(7) 106.0(8) ?
O1 Bi O3 10_5555 . 1_6555 99.4(5) 95.8(5) 102.8(6) ?
O1 Bi O3 10_5555 . 2_5555 99.4(5) 95.8(5) 102.8(6) ?
O1 Bi O3 10_5555 . 2_6555 101.7(7) 97.1(7) 106.0(8) ?
O1 Bi O3 10_5555 . 3_5565 122.2(6) 119.1(6) 125.0(6) ?
O1 Bi O3 10_5555 . 3_6565 131.5(7) 127.2(7) 135.0(8) ?
O1 Bi O3 10_5555 . 4_5565 131.5(7) 127.2(7) 135.0(8) ?
O1 Bi O3 10_5555 . 4_6565 122.2(6) 119.1(6) 125.0(6) ?
O1 Bi O4 10_5555 . . 151.0(6) 147.0(5) 157.1(7) ?
O1 Bi O4 10_5555 . 1_5565 91.1(7) 84.9(7) 93.9(6) ?
O1 Bi O4 10_5555 . 2_5555 127.1(5) 126.0(5) 129.1(6) ?
O1 Bi O4 10_5555 . 2_5565 77.0(6) 72.5(6) 79.1(6) ?
O1 Bi O4 10_5555 . 2_6555 156.7(10) 155.7(9) 158.0(10) ?
O1 Bi O4 10_5555 . 2_6565 70.0(11) 63.6(10) 73.0(11) ?
O1 Bi O4 10_5555 . 3_6555 151.0(6) 147.0(5) 157.1(7) ?
O1 Bi O4 10_5555 . 3_6565 91.1(7) 84.9(7) 93.9(6) ?
O1 Bi O4 10_5555 . 4_5555 156.7(10) 155.7(9) 158.0(10) ?
O1 Bi O4 10_5555 . 4_5565 70.0(11) 63.6(10) 73.0(11) ?
O1 Bi O4 10_5555 . 4_6555 127.1(5) 126.0(5) 129.1(6) ?
O1 Bi O4 10_5555 . 4_6565 77.0(6) 72.5(6) 79.1(6) ?
O2 Bi O2 9_5555 . 2_5555 100.2(7) 97.0(6) 103.7(7) ?
O2 Bi O2 9_5555 . 2_5565 112.3(6) 110.0(6) 115.4(6) ?
O2 Bi O2 9_5555 . 2_6555 100.2(7) 97.0(6) 103.7(7) ?
O2 Bi O2 9_5555 . 2_6565 112.3(6) 110.0(6) 115.4(6) ?
O2 Bi O2 9_5555 . 11_5555 13.5(8) 13.4(8) 13.7(8) ?
O2 Bi O2 9_5555 . 4_5555 104.0(7) 101.1(7) 107.6(7) ?
O2 Bi O2 9_5555 . 4_5565 110.5(6) 107.6(6) 113.8(6) ?
O2 Bi O2 9_5555 . 4_6555 104.0(7) 101.1(7) 107.6(7) ?
O2 Bi O2 9_5555 . 4_6565 110.5(6) 107.6(6) 113.8(6) ?
O2 Bi O3 9_5555 . . 143.0(7) 142.0(7) 144.2(7) ?
O2 Bi O3 9_5555 . 1_6555 130.0(4) 129.7(4) 130.6(4) ?
O2 Bi O3 9_5555 . 2_5555 130.0(4) 129.7(4) 130.6(4) ?
O2 Bi O3 9_5555 . 2_6555 143.0(7) 142.0(7) 144.2(7) ?
O2 Bi O3 9_5555 . 3_5565 126.2(5) 124.9(5) 127.7(4) ?
O2 Bi O3 9_5555 . 3_6565 137.1(7) 134.9(7) 139.6(7) ?
O2 Bi O3 9_5555 . 4_5565 137.1(7) 134.9(7) 139.6(7) ?
O2 Bi O3 9_5555 . 4_6565 126.2(5) 124.9(5) 127.7(4) ?
O2 Bi O4 9_5555 . . 137.7(8) 132.6(8) 142.2(8) ?
O2 Bi O4 9_5555 . 1_5565 149.8(8) 145.2(8) 154.0(8) ?
O2 Bi O4 9_5555 . 2_5555 105.8(8) 103.4(8) 108.6(9) ?
O2 Bi O4 9_5555 . 2_5565 113.2(8) 111.3(8) 115.5(8) ?
O2 Bi O4 9_5555 . 2_6555 114.6(12) 109.9(12) 119.7(12) ?
O2 Bi O4 9_5555 . 2_6565 126.9(12) 122.4(12) 131.8(12) ?
O2 Bi O4 9_5555 . 3_6555 137.7(8) 132.6(8) 142.2(8) ?
O2 Bi O4 9_5555 . 3_6565 149.8(8) 145.2(8) 154.0(8) ?
O2 Bi O4 9_5555 . 4_5555 114.6(12) 109.9(12) 119.7(12) ?
O2 Bi O4 9_5555 . 4_5565 126.9(12) 122.4(12) 131.8(12) ?
O2 Bi O4 9_5555 . 4_6555 105.8(8) 103.4(8) 108.6(9) ?
O2 Bi O4 9_5555 . 4_6565 113.2(8) 111.3(8) 115.5(8) ?
O2 Bi O2 2_5555 . 2_5565 84.8(8) 83.9(8) 85.3(7) ?
O2 Bi O2 2_5555 . 2_6555 78.1(5) 73.7(5) 80.2(6) ?
O2 Bi O2 2_5555 . 2_6565 146.5(7) 144.5(7) 147.3(7) ?
O2 Bi O2 2_5555 . 11_5555 110.4(6) 107.7(6) 113.7(6) ?
O2 Bi O2 2_5555 . 4_5555 12.3(8) 11.1(7) 12.9(8) ?
O2 Bi O2 2_5555 . 4_5565 96.6(6) 96.4(6) 96.7(6) ?
O2 Bi O2 2_5555 . 4_6555 88.7(7) 83.6(6) 91.2(7) ?
O2 Bi O2 2_5555 . 4_6565 151.6(7) 151.0(7) 152.0(7) ?
O2 Bi O3 2_5555 . . 70.2(8) 68.8(8) 71.2(8) ?
O2 Bi O3 2_5555 . 1_6555 118.5(6) 116.1(6) 120.0(6) ?
O2 Bi O3 2_5555 . 2_5555 63.1(7) 62.3(7) 63.6(7) ?
O2 Bi O3 2_5555 . 2_6555 111.7(7) 109.3(7) 113.0(7) ?
O2 Bi O3 2_5555 . 3_5565 38.6(7) 37.8(6) 39.2(7) ?
O2 Bi O3 2_5555 . 3_6565 87.6(8) 84.9(8) 89.8(8) ?
O2 Bi O3 2_5555 . 4_5565 41.6(7) 40.3(7) 42.7(8) ?
O2 Bi O3 2_5555 . 4_6565 98.4(6) 95.7(6) 100.6(6) ?
O2 Bi O4 2_5555 . . 40.0(8) 38.7(8) 40.6(8) ?
O2 Bi O4 2_5555 . 1_5565 93.1(7) 92.5(7) 93.3(7) ?
O2 Bi O4 2_5555 . 2_5555 16.8(6) 16.6(6) 16.9(6) ?
O2 Bi O4 2_5555 . 2_5565 79.8(6) 79.5(5) 79.9(6) ?
O2 Bi O4 2_5555 . 2_6555 63.2(10) 59.5(10) 65.0(10) ?
O2 Bi O4 2_5555 . 2_6565 134.7(12) 134.0(12) 135.1(12) ?
O2 Bi O4 2_5555 . 3_6555 64.5(7) 62.0(7) 65.6(7) ?
O2 Bi O4 2_5555 . 3_6565 112.5(8) 111.5(8) 112.8(8) ?
O2 Bi O4 2_5555 . 4_5555 20.2(12) 19.1(11) 20.8(12) ?
O2 Bi O4 2_5555 . 4_5565 103.5(10) 103.0(10) 103.8(10) ?
O2 Bi O4 2_5555 . 4_6555 92.7(6) 88.4(6) 94.6(6) ?
O2 Bi O4 2_5555 . 4_6565 143.1(8) 141.3(8) 143.9(8) ?
O2 Bi O2 2_5565 . 2_6555 146.5(7) 144.5(7) 147.3(7) ?
O2 Bi O2 2_5565 . 2_6565 98.6(8) 92.9(7) 101.3(8) ?
O2 Bi O2 2_5565 . 11_5555 104.2(7) 101.1(7) 107.8(7) ?
O2 Bi O2 2_5565 . 4_5555 73.1(9) 72.8(9) 73.2(9) ?
O2 Bi O2 2_5565 . 4_5565 12.3(8) 11.1(7) 12.9(8) ?
O2 Bi O2 2_5565 . 4_6555 145.5(8) 144.5(8) 146.0(8) ?
O2 Bi O2 2_5565 . 4_6565 88.7(7) 83.5(6) 91.2(7) ?
O2 Bi O3 2_5565 . . 35.0(8) 34.1(8) 35.6(8) ?
O2 Bi O3 2_5565 . 1_6555 104.2(7) 101.3(7) 106.3(7) ?
O2 Bi O3 2_5565 . 2_5555 28.8(8) 28.5(7) 28.9(8) ?
O2 Bi O3 2_5565 . 2_6555 92.0(9) 89.2(8) 94.0(9) ?
O2 Bi O3 2_5565 . 3_5565 52.1(8) 51.9(8) 52.3(8) ?
O2 Bi O3 2_5565 . 3_6565 111.3(8) 109.5(8) 112.0(8) ?
O2 Bi O3 2_5565 . 4_5565 60.5(9) 59.8(9) 60.8(9) ?
O2 Bi O3 2_5565 . 4_6565 120.6(6) 118.7(6) 121.5(7) ?
O2 Bi O4 2_5565 . . 84.0(8) 83.2(9) 84.3(8) ?
O2 Bi O4 2_5565 . 1_5565 40.7(9) 39.4(9) 41.3(9) ?
O2 Bi O4 2_5565 . 2_5555 68.0(7) 67.2(7) 68.4(7) ?
O2 Bi O4 2_5565 . 2_5565 4.6(7) 3.9(7) 5.6(7) ?
O2 Bi O4 2_5565 . 2_6555 127.4(13) 125.6(13) 128.1(13) ?
O2 Bi O4 2_5565 . 2_6565 72.2(11) 67.9(10) 74.2(11) ?
O2 Bi O4 2_5565 . 3_6555 107.0(9) 106.2(9) 107.3(9) ?
O2 Bi O4 2_5565 . 3_6565 69.3(8) 66.6(8) 70.5(8) ?
O2 Bi O4 2_5565 . 4_5555 92.3(11) 91.4(11) 92.7(11) ?
O2 Bi O4 2_5565 . 4_5565 26.8(11) 25.5(11) 27.4(12) ?
O2 Bi O4 2_5565 . 4_6555 143.6(9) 142.6(9) 144.0(9) ?
O2 Bi O4 2_5565 . 4_6565 102.2(8) 97.3(7) 104.4(8) ?
O2 Bi O2 2_6555 . 2_6565 84.8(8) 83.9(8) 85.3(7) ?
O2 Bi O2 2_6555 . 11_5555 110.4(6) 107.7(6) 113.7(6) ?
O2 Bi O2 2_6555 . 4_5555 88.7(7) 83.6(6) 91.2(7) ?
O2 Bi O2 2_6555 . 4_5565 151.6(7) 151.0(7) 152.0(7) ?
O2 Bi O2 2_6555 . 4_6555 12.3(8) 11.1(7) 12.9(8) ?
O2 Bi O2 2_6555 . 4_6565 96.6(6) 96.4(6) 96.7(6) ?
O2 Bi O3 2_6555 . . 111.7(7) 109.3(7) 113.0(7) ?
O2 Bi O3 2_6555 . 1_6555 63.1(7) 62.3(7) 63.6(7) ?
O2 Bi O3 2_6555 . 2_5555 118.5(6) 116.1(6) 120.0(6) ?
O2 Bi O3 2_6555 . 2_6555 70.2(8) 68.8(8) 71.2(8) ?
O2 Bi O3 2_6555 . 3_5565 98.4(6) 95.7(6) 100.6(6) ?
O2 Bi O3 2_6555 . 3_6565 41.6(7) 40.3(7) 42.7(8) ?
O2 Bi O3 2_6555 . 4_5565 87.6(8) 84.9(8) 89.8(8) ?
O2 Bi O3 2_6555 . 4_6565 38.6(7) 37.8(6) 39.2(7) ?
O2 Bi O4 2_6555 . . 64.5(7) 62.0(7) 65.6(7) ?
O2 Bi O4 2_6555 . 1_5565 112.5(8) 111.5(8) 112.8(8) ?
O2 Bi O4 2_6555 . 2_5555 92.7(6) 88.4(6) 94.6(6) ?
O2 Bi O4 2_6555 . 2_5565 143.1(8) 141.3(8) 143.9(8) ?
O2 Bi O4 2_6555 . 2_6555 20.2(12) 19.1(11) 20.8(12) ?
O2 Bi O4 2_6555 . 2_6565 103.5(10) 103.0(10) 103.8(10) ?
O2 Bi O4 2_6555 . 3_6555 40.0(8) 38.7(8) 40.6(8) ?
O2 Bi O4 2_6555 . 3_6565 93.1(7) 92.5(7) 93.3(7) ?
O2 Bi O4 2_6555 . 4_5555 63.2(10) 59.5(10) 65.0(10) ?
O2 Bi O4 2_6555 . 4_5565 134.7(12) 134.0(12) 135.1(12) ?
O2 Bi O4 2_6555 . 4_6555 16.8(6) 16.6(6) 16.9(6) ?
O2 Bi O4 2_6555 . 4_6565 79.8(6) 79.5(5) 79.9(6) ?
O2 Bi O2 2_6565 . 11_5555 104.2(7) 101.1(7) 107.8(7) ?
O2 Bi O2 2_6565 . 4_5555 145.5(8) 144.5(8) 146.0(8) ?
O2 Bi O2 2_6565 . 4_5565 88.7(7) 83.5(6) 91.2(7) ?
O2 Bi O2 2_6565 . 4_6555 73.1(9) 72.8(9) 73.2(9) ?
O2 Bi O2 2_6565 . 4_6565 12.3(8) 11.1(7) 12.9(8) ?
O2 Bi O3 2_6565 . . 92.0(9) 89.2(8) 94.0(9) ?
O2 Bi O3 2_6565 . 1_6555 28.8(8) 28.5(7) 28.9(8) ?
O2 Bi O3 2_6565 . 2_5555 104.2(7) 101.3(7) 106.3(7) ?
O2 Bi O3 2_6565 . 2_6555 35.0(8) 34.1(8) 35.6(8) ?
O2 Bi O3 2_6565 . 3_5565 120.6(6) 118.7(6) 121.5(7) ?
O2 Bi O3 2_6565 . 3_6565 60.5(9) 59.8(9) 60.8(9) ?
O2 Bi O3 2_6565 . 4_5565 111.3(8) 109.5(8) 112.0(8) ?
O2 Bi O3 2_6565 . 4_6565 52.1(8) 51.9(8) 52.3(8) ?
O2 Bi O4 2_6565 . . 107.0(9) 106.2(9) 107.3(9) ?
O2 Bi O4 2_6565 . 1_5565 69.3(8) 66.6(8) 70.5(8) ?
O2 Bi O4 2_6565 . 2_5555 143.6(9) 142.6(9) 144.0(9) ?
O2 Bi O4 2_6565 . 2_5565 102.2(8) 97.3(7) 104.4(8) ?
O2 Bi O4 2_6565 . 2_6555 92.3(11) 91.4(11) 92.7(11) ?
O2 Bi O4 2_6565 . 2_6565 26.8(11) 25.5(11) 27.4(12) ?
O2 Bi O4 2_6565 . 3_6555 84.0(8) 83.2(9) 84.3(8) ?
O2 Bi O4 2_6565 . 3_6565 40.7(9) 39.4(9) 41.3(9) ?
O2 Bi O4 2_6565 . 4_5555 127.4(13) 125.6(13) 128.1(13) ?
O2 Bi O4 2_6565 . 4_5565 72.2(11) 67.9(10) 74.2(11) ?
O2 Bi O4 2_6565 . 4_6555 68.0(7) 67.2(7) 68.4(7) ?
O2 Bi O4 2_6565 . 4_6565 4.6(7) 3.9(7) 5.6(7) ?
O2 Bi O2 11_5555 . 4_5555 112.2(6) 110.0(6) 115.2(6) ?
O2 Bi O2 11_5555 . 4_5565 100.2(7) 97.0(6) 103.8(7) ?
O2 Bi O2 11_5555 . 4_6555 112.2(6) 110.0(6) 115.2(6) ?
O2 Bi O2 11_5555 . 4_6565 100.2(7) 97.0(6) 103.8(7) ?
O2 Bi O3 11_5555 . . 137.3(7) 135.0(7) 139.8(7) ?
O2 Bi O3 11_5555 . 1_6555 126.3(5) 124.9(5) 127.8(4) ?
O2 Bi O3 11_5555 . 2_5555 126.3(5) 124.9(5) 127.8(4) ?
O2 Bi O3 11_5555 . 2_6555 137.3(7) 135.0(7) 139.8(7) ?
O2 Bi O3 11_5555 . 3_5565 130.0(4) 129.7(4) 130.6(4) ?
O2 Bi O3 11_5555 . 3_6565 143.0(7) 142.0(7) 144.1(7) ?
O2 Bi O3 11_5555 . 4_5565 143.0(7) 142.0(7) 144.1(7) ?
O2 Bi O3 11_5555 . 4_6565 130.0(4) 129.7(4) 130.6(4) ?
O2 Bi O4 11_5555 . . 149.6(8) 145.0(8) 154.0(8) ?
O2 Bi O4 11_5555 . 1_5565 137.9(8) 132.8(8) 142.3(8) ?
O2 Bi O4 11_5555 . 2_5555 113.1(8) 111.3(8) 115.4(8) ?
O2 Bi O4 11_5555 . 2_5565 106.0(8) 103.4(8) 108.7(9) ?
O2 Bi O4 11_5555 . 2_6555 126.7(12) 122.2(12) 131.6(12) ?
O2 Bi O4 11_5555 . 2_6565 114.8(12) 110.0(12) 119.8(12) ?
O2 Bi O4 11_5555 . 3_6555 149.6(8) 145.0(8) 154.0(8) ?
O2 Bi O4 11_5555 . 3_6565 137.9(8) 132.8(8) 142.3(8) ?
O2 Bi O4 11_5555 . 4_5555 126.7(12) 122.2(12) 131.6(12) ?
O2 Bi O4 11_5555 . 4_5565 114.8(12) 110.0(12) 119.8(12) ?
O2 Bi O4 11_5555 . 4_6555 113.1(8) 111.3(8) 115.4(8) ?
O2 Bi O4 11_5555 . 4_6565 106.0(8) 103.4(8) 108.7(9) ?
O2 Bi O2 4_5555 . 4_5565 84.8(8) 83.9(8) 85.3(7) ?
O2 Bi O2 4_5555 . 4_6555 98.5(8) 92.6(7) 101.3(8) ?
O2 Bi O2 4_5555 . 4_6565 146.5(7) 144.5(7) 147.3(7) ?
O2 Bi O3 4_5555 . . 60.5(9) 59.7(9) 60.8(9) ?
O2 Bi O3 4_5555 . 1_6555 120.5(6) 118.5(6) 121.5(7) ?
O2 Bi O3 4_5555 . 2_5555 52.1(8) 51.9(8) 52.3(8) ?
O2 Bi O3 4_5555 . 2_6555 111.2(8) 109.3(8) 112.0(8) ?
O2 Bi O3 4_5555 . 3_5565 28.8(8) 28.5(7) 28.9(8) ?
O2 Bi O3 4_5555 . 3_6565 91.8(9) 88.9(8) 94.0(9) ?
O2 Bi O3 4_5555 . 4_5565 35.0(8) 34.1(8) 35.6(8) ?
O2 Bi O3 4_5555 . 4_6565 104.0(7) 101.1(7) 106.2(7) ?
O2 Bi O4 4_5555 . . 40.7(9) 39.3(9) 41.3(9) ?
O2 Bi O4 4_5555 . 1_5565 84.0(8) 83.3(9) 84.3(8) ?
O2 Bi O4 4_5555 . 2_5555 4.6(7) 3.9(7) 5.6(7) ?
O2 Bi O4 4_5555 . 2_5565 68.0(7) 67.2(7) 68.4(7) ?
O2 Bi O4 4_5555 . 2_6555 72.1(11) 67.7(10) 74.2(11) ?
O2 Bi O4 4_5555 . 2_6565 127.5(13) 125.8(13) 128.1(13) ?
O2 Bi O4 4_5555 . 3_6555 69.2(8) 66.5(8) 70.4(8) ?
O2 Bi O4 4_5555 . 3_6565 107.0(9) 106.3(9) 107.3(9) ?
O2 Bi O4 4_5555 . 4_5555 26.8(11) 25.4(11) 27.4(12) ?
O2 Bi O4 4_5555 . 4_5565 92.4(11) 91.5(11) 92.7(11) ?
O2 Bi O4 4_5555 . 4_6555 102.1(8) 97.1(7) 104.4(8) ?
O2 Bi O4 4_5555 . 4_6565 143.6(9) 142.4(9) 144.0(9) ?
O2 Bi O2 4_5565 . 4_6555 146.5(7) 144.5(7) 147.3(7) ?
O2 Bi O2 4_5565 . 4_6565 78.0(5) 73.7(5) 80.2(6) ?
O2 Bi O3 4_5565 . . 41.6(7) 40.3(7) 42.8(8) ?
O2 Bi O3 4_5565 . 1_6555 98.4(6) 95.7(6) 100.7(6) ?
O2 Bi O3 4_5565 . 2_5555 38.6(7) 37.8(6) 39.2(7) ?
O2 Bi O3 4_5565 . 2_6555 87.7(8) 84.8(8) 89.9(8) ?
O2 Bi O3 4_5565 . 3_5565 63.2(7) 62.3(7) 63.6(7) ?
O2 Bi O3 4_5565 . 3_6565 111.8(7) 109.5(7) 113.0(7) ?
O2 Bi O3 4_5565 . 4_5565 70.3(8) 68.9(8) 71.2(8) ?
O2 Bi O3 4_5565 . 4_6565 118.6(6) 116.3(6) 120.0(6) ?
O2 Bi O4 4_5565 . . 93.1(7) 92.4(7) 93.3(7) ?
O2 Bi O4 4_5565 . 1_5565 40.0(8) 38.6(8) 40.6(8) ?
O2 Bi O4 4_5565 . 2_5555 79.8(6) 79.5(5) 79.9(6) ?
O2 Bi O4 4_5565 . 2_5565 16.8(6) 16.6(6) 16.9(6) ?
O2 Bi O4 4_5565 . 2_6555 134.7(12) 133.9(12) 135.1(12) ?
O2 Bi O4 4_5565 . 2_6565 63.2(10) 59.4(9) 64.9(10) ?
O2 Bi O4 4_5565 . 3_6555 112.5(8) 111.5(8) 112.8(8) ?
O2 Bi O4 4_5565 . 3_6565 64.5(7) 62.0(7) 65.6(7) ?
O2 Bi O4 4_5565 . 4_5555 103.5(10) 102.9(10) 103.8(10) ?
O2 Bi O4 4_5565 . 4_5565 20.2(12) 19.1(11) 20.8(12) ?
O2 Bi O4 4_5565 . 4_6555 143.1(8) 141.2(8) 143.9(8) ?
O2 Bi O4 4_5565 . 4_6565 92.6(6) 88.4(6) 94.6(6) ?
O2 Bi O2 4_6555 . 4_6565 84.8(8) 83.9(8) 85.3(7) ?
O2 Bi O3 4_6555 . . 111.2(8) 109.3(8) 112.0(8) ?
O2 Bi O3 4_6555 . 1_6555 52.1(8) 51.9(8) 52.3(8) ?
O2 Bi O3 4_6555 . 2_5555 120.5(6) 118.5(6) 121.5(7) ?
O2 Bi O3 4_6555 . 2_6555 60.5(9) 59.7(9) 60.8(9) ?
O2 Bi O3 4_6555 . 3_5565 104.0(7) 101.1(7) 106.2(7) ?
O2 Bi O3 4_6555 . 3_6565 35.0(8) 34.1(8) 35.6(8) ?
O2 Bi O3 4_6555 . 4_5565 91.8(9) 88.9(8) 94.0(9) ?
O2 Bi O3 4_6555 . 4_6565 28.8(8) 28.5(7) 28.9(8) ?
O2 Bi O4 4_6555 . . 69.2(8) 66.5(8) 70.4(8) ?
O2 Bi O4 4_6555 . 1_5565 107.0(9) 106.3(9) 107.3(9) ?
O2 Bi O4 4_6555 . 2_5555 102.1(8) 97.1(7) 104.4(8) ?
O2 Bi O4 4_6555 . 2_5565 143.6(9) 142.4(9) 144.0(9) ?
O2 Bi O4 4_6555 . 2_6555 26.8(11) 25.4(11) 27.4(12) ?
O2 Bi O4 4_6555 . 2_6565 92.4(11) 91.5(11) 92.7(11) ?
O2 Bi O4 4_6555 . 3_6555 40.7(9) 39.3(9) 41.3(9) ?
O2 Bi O4 4_6555 . 3_6565 84.0(8) 83.3(9) 84.3(8) ?
O2 Bi O4 4_6555 . 4_5555 72.1(11) 67.7(10) 74.2(11) ?
O2 Bi O4 4_6555 . 4_5565 127.5(13) 125.8(13) 128.1(13) ?
O2 Bi O4 4_6555 . 4_6555 4.6(7) 3.9(7) 5.6(7) ?
O2 Bi O4 4_6555 . 4_6565 68.0(7) 67.2(7) 68.4(7) ?
O2 Bi O3 4_6565 . . 87.7(8) 84.8(8) 89.9(8) ?
O2 Bi O3 4_6565 . 1_6555 38.6(7) 37.8(6) 39.2(7) ?
O2 Bi O3 4_6565 . 2_5555 98.4(6) 95.7(6) 100.7(6) ?
O2 Bi O3 4_6565 . 2_6555 41.6(7) 40.3(7) 42.8(8) ?
O2 Bi O3 4_6565 . 3_5565 118.6(6) 116.3(6) 120.0(6) ?
O2 Bi O3 4_6565 . 3_6565 70.3(8) 68.9(8) 71.2(8) ?
O2 Bi O3 4_6565 . 4_5565 111.8(7) 109.5(7) 113.0(7) ?
O2 Bi O3 4_6565 . 4_6565 63.2(7) 62.3(7) 63.6(7) ?
O2 Bi O4 4_6565 . . 112.5(8) 111.5(8) 112.8(8) ?
O2 Bi O4 4_6565 . 1_5565 64.5(7) 62.0(7) 65.6(7) ?
O2 Bi O4 4_6565 . 2_5555 143.1(8) 141.2(8) 143.9(8) ?
O2 Bi O4 4_6565 . 2_5565 92.6(6) 88.4(6) 94.6(6) ?
O2 Bi O4 4_6565 . 2_6555 103.5(10) 102.9(10) 103.8(10) ?
O2 Bi O4 4_6565 . 2_6565 20.2(12) 19.1(11) 20.8(12) ?
O2 Bi O4 4_6565 . 3_6555 93.1(7) 92.4(7) 93.3(7) ?
O2 Bi O4 4_6565 . 3_6565 40.0(8) 38.6(8) 40.6(8) ?
O2 Bi O4 4_6565 . 4_5555 134.7(12) 133.9(12) 135.1(12) ?
O2 Bi O4 4_6565 . 4_5565 63.2(10) 59.4(9) 64.9(10) ?
O2 Bi O4 4_6565 . 4_6555 79.8(6) 79.5(5) 79.9(6) ?
O2 Bi O4 4_6565 . 4_6565 16.8(6) 16.6(6) 16.9(6) ?
O3 Bi O3 . . 1_6555 83.5(8) 82.0(8) 84.2(8) ?
O3 Bi O3 . . 2_5555 13.8(8) 13.8(8) 13.8(8) ?
O3 Bi O3 . . 2_6555 69.7(10) 68.3(10) 70.4(10) ?
O3 Bi O3 . . 3_5565 31.8(8) 31.2(8) 32.1(8) ?
O3 Bi O3 . . 3_6565 78.7(9) 78.2(9) 79.0(9) ?
O3 Bi O3 . . 4_5565 31.8(8) 31.6(8) 31.9(9) ?
O3 Bi O3 . . 4_6565 90.5(8) 90.0(8) 90.7(8) ?
O3 Bi O4 . . . 52.2(7) 51.0(8) 52.9(7) ?
O3 Bi O4 . . 1_5565 23.8(9) 22.8(9) 24.6(9) ?
O3 Bi O4 . . 2_5555 56.1(9) 55.0(9) 56.9(9) ?
O3 Bi O4 . . 2_5565 32.5(10) 31.6(9) 33.4(10) ?
O3 Bi O4 . . 2_6555 93.3(13) 91.3(12) 94.2(13) ?
O3 Bi O4 . . 2_6565 68.0(13) 65.7(13) 69.6(13) ?
O3 Bi O4 . . 3_6555 72.0(9) 70.8(9) 72.6(9) ?
O3 Bi O4 . . 3_6565 52.3(10) 50.9(10) 53.3(10) ?
O3 Bi O4 . . 4_5555 67.9(11) 66.7(11) 68.4(11) ?
O3 Bi O4 . . 4_5565 36.0(11) 35.0(11) 36.7(11) ?
O3 Bi O4 . . 4_6555 110.2(10) 108.7(10) 110.9(10) ?
O3 Bi O4 . . 4_6565 93.4(10) 91.0(10) 95.1(10) ?
O3 Bi O3 1_6555 . 2_5555 97.3(7) 95.8(7) 98.0(6) ?
O3 Bi O3 1_6555 . 2_6555 13.8(8) 13.8(8) 13.8(8) ?
O3 Bi O3 1_6555 . 3_5565 103.0(6) 102.5(6) 103.3(6) ?
O3 Bi O3 1_6555 . 3_6565 31.8(8) 31.3(8) 32.1(8) ?
O3 Bi O3 1_6555 . 4_5565 90.5(8) 90.0(8) 90.7(8) ?
O3 Bi O3 1_6555 . 4_6565 25.5(7) 25.4(7) 25.6(7) ?
O3 Bi O4 1_6555 . . 80.1(8) 79.1(8) 80.5(8) ?
O3 Bi O4 1_6555 . 1_5565 65.5(9) 64.1(9) 66.3(9) ?
O3 Bi O4 1_6555 . 2_5555 120.5(9) 118.9(9) 121.2(9) ?
O3 Bi O4 1_6555 . 2_5565 106.1(9) 103.7(9) 107.8(9) ?
O3 Bi O4 1_6555 . 2_6555 65.6(10) 64.9(10) 65.8(10) ?
O3 Bi O4 1_6555 . 2_6565 40.4(10) 39.8(10) 40.7(10) ?
O3 Bi O4 1_6555 . 3_6555 55.2(7) 54.5(7) 55.6(7) ?
O3 Bi O4 1_6555 . 3_6565 35.6(8) 34.8(8) 36.0(8) ?
O3 Bi O4 1_6555 . 4_5555 99.0(12) 97.2(12) 99.9(12) ?
O3 Bi O4 1_6555 . 4_5565 79.0(12) 76.8(12) 80.5(12) ?
O3 Bi O4 1_6555 . 4_6555 47.3(7) 46.6(7) 47.7(7) ?
O3 Bi O4 1_6555 . 4_6565 24.7(8) 24.1(8) 25.2(8) ?
O3 Bi O3 2_5555 . 2_6555 83.5(8) 82.0(8) 84.2(8) ?
O3 Bi O3 2_5555 . 3_5565 25.5(7) 25.4(7) 25.6(7) ?
O3 Bi O3 2_5555 . 3_6565 90.5(8) 90.0(8) 90.7(8) ?
O3 Bi O3 2_5555 . 4_5565 31.8(8) 31.3(8) 32.1(8) ?
O3 Bi O3 2_5555 . 4_6565 103.0(6) 102.5(6) 103.3(6) ?
O3 Bi O4 2_5555 . . 55.2(7) 54.5(7) 55.6(7) ?
O3 Bi O4 2_5555 . 1_5565 35.6(8) 34.8(8) 36.0(8) ?
O3 Bi O4 2_5555 . 2_5555 47.3(7) 46.6(7) 47.7(7) ?
O3 Bi O4 2_5555 . 2_5565 24.7(8) 24.1(8) 25.2(8) ?
O3 Bi O4 2_5555 . 2_6555 99.0(12) 97.2(12) 99.9(12) ?
O3 Bi O4 2_5555 . 2_6565 79.0(12) 76.8(12) 80.5(12) ?
O3 Bi O4 2_5555 . 3_6555 80.1(8) 79.1(8) 80.5(8) ?
O3 Bi O4 2_5555 . 3_6565 65.5(9) 64.1(9) 66.3(9) ?
O3 Bi O4 2_5555 . 4_5555 65.6(10) 64.9(10) 65.8(10) ?
O3 Bi O4 2_5555 . 4_5565 40.4(10) 39.8(10) 40.7(10) ?
O3 Bi O4 2_5555 . 4_6555 120.5(9) 118.9(9) 121.2(9) ?
O3 Bi O4 2_5555 . 4_6565 106.1(9) 103.7(9) 107.8(9) ?
O3 Bi O3 2_6555 . 3_5565 90.5(8) 90.0(8) 90.7(8) ?
O3 Bi O3 2_6555 . 3_6565 31.8(8) 31.6(8) 31.9(9) ?
O3 Bi O3 2_6555 . 4_5565 78.7(9) 78.2(9) 79.0(9) ?
O3 Bi O3 2_6555 . 4_6565 31.8(8) 31.2(8) 32.1(8) ?
O3 Bi O4 2_6555 . . 72.0(9) 70.8(9) 72.6(9) ?
O3 Bi O4 2_6555 . 1_5565 52.3(10) 50.9(10) 53.3(10) ?
O3 Bi O4 2_6555 . 2_5555 110.2(10) 108.7(10) 110.9(10) ?
O3 Bi O4 2_6555 . 2_5565 93.4(10) 91.0(10) 95.1(10) ?
O3 Bi O4 2_6555 . 2_6555 67.9(11) 66.7(11) 68.4(11) ?
O3 Bi O4 2_6555 . 2_6565 36.0(11) 35.0(11) 36.7(11) ?
O3 Bi O4 2_6555 . 3_6555 52.2(7) 51.0(8) 52.9(7) ?
O3 Bi O4 2_6555 . 3_6565 23.8(9) 22.8(9) 24.6(9) ?
O3 Bi O4 2_6555 . 4_5555 93.3(13) 91.3(12) 94.2(13) ?
O3 Bi O4 2_6555 . 4_5565 68.0(13) 65.7(13) 69.6(13) ?
O3 Bi O4 2_6555 . 4_6555 56.1(9) 55.0(9) 56.9(9) ?
O3 Bi O4 2_6555 . 4_6565 32.5(10) 31.6(9) 33.4(10) ?
O3 Bi O3 3_5565 . 3_6565 83.4(8) 81.9(8) 84.2(8) ?
O3 Bi O3 3_5565 . 4_5565 13.8(8) 13.7(8) 13.8(8) ?
O3 Bi O3 3_5565 . 4_6565 97.2(7) 95.6(7) 98.0(6) ?
O3 Bi O4 3_5565 . . 35.5(8) 34.7(8) 36.0(8) ?
O3 Bi O4 3_5565 . 1_5565 55.3(7) 54.6(7) 55.6(7) ?
O3 Bi O4 3_5565 . 2_5555 24.6(8) 24.1(8) 25.2(8) ?
O3 Bi O4 3_5565 . 2_5565 47.3(7) 46.7(7) 47.7(7) ?
O3 Bi O4 3_5565 . 2_6555 78.8(12) 76.6(11) 80.5(12) ?
O3 Bi O4 3_5565 . 2_6565 99.1(12) 97.3(12) 99.9(12) ?
O3 Bi O4 3_5565 . 3_6555 65.4(9) 64.0(9) 66.3(9) ?
O3 Bi O4 3_5565 . 3_6565 80.2(8) 79.2(8) 80.5(8) ?
O3 Bi O4 3_5565 . 4_5555 40.4(10) 39.8(10) 40.7(10) ?
O3 Bi O4 3_5565 . 4_5565 65.6(10) 65.0(10) 65.8(10) ?
O3 Bi O4 3_5565 . 4_6555 106.0(9) 103.5(9) 107.8(9) ?
O3 Bi O4 3_5565 . 4_6565 120.6(9) 119.1(9) 121.2(9) ?
O3 Bi O3 3_6565 . 4_5565 69.6(10) 68.1(10) 70.4(10) ?
O3 Bi O3 3_6565 . 4_6565 13.8(8) 13.7(8) 13.8(8) ?
O3 Bi O4 3_6565 . . 52.2(10) 50.8(10) 53.2(10) ?
O3 Bi O4 3_6565 . 1_5565 72.1(9) 70.9(9) 72.6(9) ?
O3 Bi O4 3_6565 . 2_5555 93.3(10) 90.8(10) 95.1(10) ?
O3 Bi O4 3_6565 . 2_5565 110.3(10) 108.8(10) 110.9(10) ?
O3 Bi O4 3_6565 . 2_6555 36.0(11) 34.9(11) 36.7(11) ?
O3 Bi O4 3_6565 . 2_6565 67.9(11) 66.8(11) 68.4(11) ?
O3 Bi O4 3_6565 . 3_6555 23.8(9) 22.8(9) 24.6(9) ?
O3 Bi O4 3_6565 . 3_6565 52.3(7) 51.1(8) 52.9(7) ?
O3 Bi O4 3_6565 . 4_5555 67.9(13) 65.6(13) 69.6(13) ?
O3 Bi O4 3_6565 . 4_5565 93.4(13) 91.5(12) 94.2(13) ?
O3 Bi O4 3_6565 . 4_6555 32.4(10) 31.5(9) 33.3(10) ?
O3 Bi O4 3_6565 . 4_6565 56.2(9) 55.1(9) 56.9(9) ?
O3 Bi O3 4_5565 . 4_6565 83.4(8) 81.9(8) 84.2(8) ?
O3 Bi O4 4_5565 . . 23.8(9) 22.8(9) 24.6(9) ?
O3 Bi O4 4_5565 . 1_5565 52.3(7) 51.1(8) 52.9(7) ?
O3 Bi O4 4_5565 . 2_5555 32.4(10) 31.5(9) 33.3(10) ?
O3 Bi O4 4_5565 . 2_5565 56.2(9) 55.1(9) 56.9(9) ?
O3 Bi O4 4_5565 . 2_6555 67.9(13) 65.6(13) 69.6(13) ?
O3 Bi O4 4_5565 . 2_6565 93.4(13) 91.5(12) 94.2(13) ?
O3 Bi O4 4_5565 . 3_6555 52.2(10) 50.8(10) 53.2(10) ?
O3 Bi O4 4_5565 . 3_6565 72.1(9) 70.9(9) 72.6(9) ?
O3 Bi O4 4_5565 . 4_5555 36.0(11) 34.9(11) 36.7(11) ?
O3 Bi O4 4_5565 . 4_5565 67.9(11) 66.8(11) 68.4(11) ?
O3 Bi O4 4_5565 . 4_6555 93.3(10) 90.8(10) 95.1(10) ?
O3 Bi O4 4_5565 . 4_6565 110.3(10) 108.8(10) 110.9(10) ?
O3 Bi O4 4_6565 . . 65.4(9) 64.0(9) 66.3(9) ?
O3 Bi O4 4_6565 . 1_5565 80.2(8) 79.2(8) 80.5(8) ?
O3 Bi O4 4_6565 . 2_5555 106.0(9) 103.5(9) 107.8(9) ?
O3 Bi O4 4_6565 . 2_5565 120.6(9) 119.1(9) 121.2(9) ?
O3 Bi O4 4_6565 . 2_6555 40.4(10) 39.8(10) 40.7(10) ?
O3 Bi O4 4_6565 . 2_6565 65.6(10) 65.0(10) 65.8(10) ?
O3 Bi O4 4_6565 . 3_6555 35.5(8) 34.7(8) 36.0(8) ?
O3 Bi O4 4_6565 . 3_6565 55.3(7) 54.6(7) 55.6(7) ?
O3 Bi O4 4_6565 . 4_5555 78.8(12) 76.6(11) 80.5(12) ?
O3 Bi O4 4_6565 . 4_5565 99.1(12) 97.3(12) 99.9(12) ?
O3 Bi O4 4_6565 . 4_6555 24.6(8) 24.1(8) 25.2(8) ?
O3 Bi O4 4_6565 . 4_6565 47.3(7) 46.7(7) 47.7(7) ?
O4 Bi O4 . . 1_5565 66.9(7) 66.5(6) 67.1(7) ?
O4 Bi O4 . . 2_5555 41.5(11) 40.3(10) 42.0(11) ?
O4 Bi O4 . . 2_5565 79.8(8) 79.5(8) 80.0(8) ?
O4 Bi O4 . . 2_6555 44.3(13) 42.8(12) 45.1(13) ?
O4 Bi O4 . . 2_6565 98.6(12) 98.0(12) 99.0(12) ?
O4 Bi O4 . . 3_6555 30.9(10) 30.0(10) 31.3(10) ?
O4 Bi O4 . . 3_6565 75.4(8) 75.0(8) 75.6(8) ?
O4 Bi O4 . . 4_5555 22.9(12) 21.8(12) 23.3(12) ?
O4 Bi O4 . . 4_5565 87.0(11) 86.5(11) 87.3(11) ?
O4 Bi O4 . . 4_6555 71.1(10) 68.8(9) 72.1(10) ?
O4 Bi O4 . . 4_6565 104.0(10) 103.5(10) 104.3(10) ?
O4 Bi O4 1_5565 . 2_5555 79.8(8) 79.5(8) 80.0(8) ?
O4 Bi O4 1_5565 . 2_5565 41.5(11) 40.3(10) 42.0(11) ?
O4 Bi O4 1_5565 . 2_6555 98.6(12) 97.8(12) 99.0(12) ?
O4 Bi O4 1_5565 . 2_6565 44.4(13) 42.9(12) 45.1(13) ?
O4 Bi O4 1_5565 . 3_6555 75.4(8) 75.0(8) 75.6(8) ?
O4 Bi O4 1_5565 . 3_6565 30.9(10) 30.1(10) 31.3(10) ?
O4 Bi O4 1_5565 . 4_5555 87.1(11) 86.5(11) 87.3(11) ?
O4 Bi O4 1_5565 . 4_5565 22.9(12) 21.8(12) 23.3(12) ?
O4 Bi O4 1_5565 . 4_6555 104.0(10) 103.6(10) 104.3(10) ?
O4 Bi O4 1_5565 . 4_6565 71.1(10) 68.9(9) 72.1(10) ?
O4 Bi O4 2_5555 . 2_5565 62.9(5) 62.8(5) 63.0(5) ?
O4 Bi O4 2_5555 . 2_6555 75.5(11) 72.0(11) 77.1(12) ?
O4 Bi O4 2_5555 . 2_6565 123.7(13) 122.3(12) 124.2(13) ?
O4 Bi O4 2_5555 . 3_6555 71.1(10) 68.8(9) 72.1(10) ?
O4 Bi O4 2_5555 . 3_6565 104.0(10) 103.6(10) 104.3(10) ?
O4 Bi O4 2_5555 . 4_5555 30.0(11) 29.5(11) 30.3(12) ?
O4 Bi O4 2_5555 . 4_5565 87.4(10) 87.0(10) 87.6(10) ?
O4 Bi O4 2_5555 . 4_6555 105.6(8) 101.4(7) 107.4(8) ?
O4 Bi O4 2_5555 . 4_6565 142.4(11) 141.8(11) 142.7(11) ?
O4 Bi O4 2_5565 . 2_6555 123.6(13) 122.2(12) 124.2(13) ?
O4 Bi O4 2_5565 . 2_6565 75.6(11) 72.1(11) 77.1(12) ?
O4 Bi O4 2_5565 . 3_6555 104.0(10) 103.5(10) 104.3(10) ?
O4 Bi O4 2_5565 . 3_6565 71.1(10) 68.9(9) 72.1(10) ?
O4 Bi O4 2_5565 . 4_5555 87.4(10) 87.1(10) 87.6(10) ?
O4 Bi O4 2_5565 . 4_5565 30.0(11) 29.5(11) 30.3(12) ?
O4 Bi O4 2_5565 . 4_6555 142.4(11) 141.8(11) 142.7(11) ?
O4 Bi O4 2_5565 . 4_6565 105.6(8) 101.6(7) 107.4(8) ?
O4 Bi O4 2_6555 . 2_6565 103.9(13) 103.2(13) 104.2(13) ?
O4 Bi O4 2_6555 . 3_6555 22.9(12) 21.8(12) 23.3(12) ?
O4 Bi O4 2_6555 . 3_6565 87.1(11) 86.5(11) 87.3(11) ?
O4 Bi O4 2_6555 . 4_5555 45.5(14) 42.5(13) 46.9(14) ?
O4 Bi O4 2_6555 . 4_5565 121.8(15) 121.0(15) 122.3(15) ?
O4 Bi O4 2_6555 . 4_6555 30.0(11) 29.5(11) 30.3(12) ?
O4 Bi O4 2_6555 . 4_6565 87.4(10) 87.1(10) 87.6(10) ?
O4 Bi O4 2_6565 . 3_6555 87.0(11) 86.5(11) 87.3(11) ?
O4 Bi O4 2_6565 . 3_6565 22.9(12) 21.8(12) 23.3(12) ?
O4 Bi O4 2_6565 . 4_5555 121.8(15) 121.0(15) 122.3(15) ?
O4 Bi O4 2_6565 . 4_5565 45.5(14) 42.7(13) 46.9(14) ?
O4 Bi O4 2_6565 . 4_6555 87.4(10) 87.0(10) 87.6(10) ?
O4 Bi O4 2_6565 . 4_6565 30.0(11) 29.5(11) 30.3(12) ?
O4 Bi O4 3_6555 . 3_6565 66.9(7) 66.5(6) 67.1(7) ?
O4 Bi O4 3_6555 . 4_5555 44.3(13) 42.8(12) 45.1(13) ?
O4 Bi O4 3_6555 . 4_5565 98.6(12) 98.0(12) 99.0(12) ?
O4 Bi O4 3_6555 . 4_6555 41.5(11) 40.3(10) 42.0(11) ?
O4 Bi O4 3_6555 . 4_6565 79.8(8) 79.5(8) 80.0(8) ?
O4 Bi O4 3_6565 . 4_5555 98.6(12) 97.8(12) 99.0(12) ?
O4 Bi O4 3_6565 . 4_5565 44.4(13) 42.9(12) 45.1(13) ?
O4 Bi O4 3_6565 . 4_6555 79.8(8) 79.5(8) 80.0(8) ?
O4 Bi O4 3_6565 . 4_6565 41.5(11) 40.3(10) 42.0(11) ?
O4 Bi O4 4_5555 . 4_5565 103.9(13) 103.2(13) 104.2(13) ?
O4 Bi O4 4_5555 . 4_6555 75.5(11) 72.0(11) 77.1(12) ?
O4 Bi O4 4_5555 . 4_6565 123.6(13) 122.2(12) 124.2(13) ?
O4 Bi O4 4_5565 . 4_6555 123.7(13) 122.3(12) 124.2(13) ?
O4 Bi O4 4_5565 . 4_6565 75.6(11) 72.1(11) 77.1(12) ?
O4 Bi O4 4_6555 . 4_6565 62.9(5) 62.8(5) 63.0(5) ?
Bi I Bi 1_4545 . 1_4555 70.50(6) 68.43(6) 71.82(6) ?
Bi I Bi 1_4545 . 1_5545 66.90(5) 65.81(4) 68.82(5) ?
Bi I Bi 1_4545 . . 105.90(5) 105.61(5) 106.16(5) ?
Bi I Bi 1_4545 . 9_4445 127.02(5) 124.50(6) 129.77(6) ?
Bi I Bi 1_4545 . 2_5545 74.08(5) 71.52(6) 77.20(6) ?
Bi I Bi 1_4545 . 2_5555 113.05(4) 111.20(4) 114.19(4) ?
Bi I Bi 1_4545 . 2_6545 109.51(7) 107.12(6) 114.65(10) ?
Bi I Bi 1_4545 . 2_6555 177.87(6) 176.60(9) 180 ?
Bi I Bi 1_4545 . 10_5545 52.95(4) 52.59(4) 53.09(4) ?
Bi I I 1_4545 . 1_4555 56.55(4) 55.59(4) 57.09(4) ?
Bi I I 1_4545 . 1_5545 55.66(4) 54.09(4) 57.33(6) ?
Bi I I 1_4545 . 1_5565 126.20(4) 125.74(5) 126.44(3) ?
Bi I I 1_4545 . 1_6555 123.45(5) 122.91(4) 124.41(6) ?
Bi I B 1_4545 . 1_4555 55.68(3) 54.97(3) 56.40(3) ?
Bi I B 1_4545 . 1_5545 53.78(4) 53.56(3) 54.26(5) ?
Bi I B 1_4545 . . 91.53(5) 57.33(6) 125.74(5) ?
Bi I B 1_4545 . 1_5565 124.22(4) 122.67(6) 125.81(4) ?
Bi I B 1_4545 . 1_6555 124.37(5) 123.78(5) 124.96(5) ?
Bi I O2 1_4545 . . 114.3(12) 114.3(12) 114.3(12) ?
Bi I O2 1_4545 . 2_5555 44.2(9) 44.2(9) 44.2(9) ?
Bi I O2 1_4545 . 3_5555 138.0(8) 138.0(8) 138.0(8) ?
Bi I O2 1_4545 . 4_5555 62.6(12) 62.6(12) 62.6(12) ?
Bi I O3 1_4545 . 1_5545 70.4(13) 70.4(13) 70.4(13) ?
Bi I O3 1_4545 . 2_5545 41.3(8) 41.3(8) 41.3(8) ?
Bi I O3 1_4545 . 3_5565 107.0(13) 107.0(13) 107.0(13) ?
Bi I O3 1_4545 . 4_5565 135.3(8) 135.3(8) 135.3(8) ?
Bi I O4 1_4545 . . 144.9(5) 143.3(6) 146.4(5) ?
Bi I O4 1_4545 . 2_5555 35.2(5) 31.1(6) 39.3(4) ?
Bi I O4 1_4545 . 3_5555 86.2(18) 85.3(19) 87.2(18) ?
Bi I O4 1_4545 . 4_5555 93.9(18) 91.6(18) 96.2(18) ?
Bi I Bi 1_4555 . 1_5545 105.90(5) 105.61(5) 106.16(5) ?
Bi I Bi 1_4555 . . 66.90(5) 65.81(4) 68.82(5) ?
Bi I Bi 1_4555 . 9_4445 127.02(5) 124.50(6) 129.77(6) ?
Bi I Bi 1_4555 . 2_5545 113.05(4) 111.20(4) 114.19(4) ?
Bi I Bi 1_4555 . 2_5555 74.08(5) 71.52(6) 77.20(6) ?
Bi I Bi 1_4555 . 2_6545 177.87(6) 176.60(9) 180 ?
Bi I Bi 1_4555 . 2_6555 109.51(7) 107.12(6) 114.65(10) ?
Bi I Bi 1_4555 . 10_5545 52.95(4) 52.59(4) 53.09(4) ?
Bi I I 1_4555 . 1_4555 56.55(4) 55.59(4) 57.09(4) ?
Bi I I 1_4555 . 1_5545 126.20(4) 125.74(5) 126.44(3) ?
Bi I I 1_4555 . 1_5565 55.66(4) 54.09(4) 57.33(6) ?
Bi I I 1_4555 . 1_6555 123.45(5) 122.91(4) 124.41(6) ?
Bi I B 1_4555 . 1_4555 55.68(3) 54.97(3) 56.40(3) ?
Bi I B 1_4555 . 1_5545 124.22(4) 122.67(6) 125.81(4) ?
Bi I B 1_4555 . . 91.53(5) 57.33(6) 125.74(5) ?
Bi I B 1_4555 . 1_5565 53.78(4) 53.56(3) 54.26(5) ?
Bi I B 1_4555 . 1_6555 124.37(5) 123.78(5) 124.96(5) ?
Bi I O2 1_4555 . . 138.0(8) 138.0(8) 138.0(8) ?
Bi I O2 1_4555 . 2_5555 62.6(12) 62.6(12) 62.6(12) ?
Bi I O2 1_4555 . 3_5555 114.3(12) 114.3(12) 114.3(12) ?
Bi I O2 1_4555 . 4_5555 44.2(9) 44.2(9) 44.2(9) ?
Bi I O3 1_4555 . 1_5545 135.3(8) 135.3(8) 135.3(8) ?
Bi I O3 1_4555 . 2_5545 107.0(13) 107.0(13) 107.0(13) ?
Bi I O3 1_4555 . 3_5565 41.3(8) 41.3(8) 41.3(8) ?
Bi I O3 1_4555 . 4_5565 70.4(13) 70.4(13) 70.4(13) ?
Bi I O4 1_4555 . . 144.9(5) 143.3(6) 146.4(5) ?
Bi I O4 1_4555 . 2_5555 35.2(5) 31.1(6) 39.3(4) ?
Bi I O4 1_4555 . 3_5555 86.2(18) 85.3(19) 87.2(18) ?
Bi I O4 1_4555 . 4_5555 93.9(18) 91.6(18) 96.2(18) ?
Bi I Bi 1_5545 . . 70.50(6) 68.43(6) 71.82(6) ?
Bi I Bi 1_5545 . 9_4445 127.02(5) 124.50(6) 129.77(6) ?
Bi I Bi 1_5545 . 2_5545 109.51(7) 107.12(6) 114.65(10) ?
Bi I Bi 1_5545 . 2_5555 177.87(6) 176.60(9) 180 ?
Bi I Bi 1_5545 . 2_6545 74.08(5) 71.52(6) 77.20(6) ?
Bi I Bi 1_5545 . 2_6555 113.05(4) 111.20(4) 114.19(4) ?
Bi I Bi 1_5545 . 10_5545 52.95(4) 52.59(4) 53.09(4) ?
Bi I I 1_5545 . 1_4555 123.45(5) 122.91(4) 124.41(6) ?
Bi I I 1_5545 . 1_5545 55.66(4) 54.09(4) 57.33(6) ?
Bi I I 1_5545 . 1_5565 126.20(4) 125.74(5) 126.44(3) ?
Bi I I 1_5545 . 1_6555 56.55(4) 55.59(4) 57.09(4) ?
Bi I B 1_5545 . 1_4555 124.37(5) 123.78(5) 124.96(5) ?
Bi I B 1_5545 . 1_5545 53.78(4) 53.56(3) 54.26(5) ?
Bi I B 1_5545 . . 91.53(5) 57.33(6) 125.74(5) ?
Bi I B 1_5545 . 1_5565 124.22(4) 122.67(6) 125.81(4) ?
Bi I B 1_5545 . 1_6555 55.68(3) 54.97(3) 56.40(3) ?
Bi I O2 1_5545 . . 114.3(12) 114.3(12) 114.3(12) ?
Bi I O2 1_5545 . 2_5555 44.2(9) 44.2(9) 44.2(9) ?
Bi I O2 1_5545 . 3_5555 138.0(8) 138.0(8) 138.0(8) ?
Bi I O2 1_5545 . 4_5555 62.6(12) 62.6(12) 62.6(12) ?
Bi I O3 1_5545 . 1_5545 41.3(8) 41.3(8) 41.3(8) ?
Bi I O3 1_5545 . 2_5545 70.4(13) 70.4(13) 70.4(13) ?
Bi I O3 1_5545 . 3_5565 135.3(8) 135.3(8) 135.3(8) ?
Bi I O3 1_5545 . 4_5565 107.0(13) 107.0(13) 107.0(13) ?
Bi I O4 1_5545 . . 86.2(18) 85.3(19) 87.2(18) ?
Bi I O4 1_5545 . 2_5555 93.9(18) 91.6(18) 96.2(18) ?
Bi I O4 1_5545 . 3_5555 144.9(5) 143.3(6) 146.4(5) ?
Bi I O4 1_5545 . 4_5555 35.2(5) 31.1(6) 39.3(4) ?
Bi I Bi . . 9_4445 127.02(5) 124.50(6) 129.77(6) ?
Bi I Bi . . 2_5545 177.87(6) 176.60(9) 180 ?
Bi I Bi . . 2_5555 109.51(7) 107.12(6) 114.65(10) ?
Bi I Bi . . 2_6545 113.05(4) 111.20(4) 114.19(4) ?
Bi I Bi . . 2_6555 74.08(5) 71.52(6) 77.20(6) ?
Bi I Bi . . 10_5545 52.95(4) 52.59(4) 53.09(4) ?
Bi I I . . 1_4555 123.45(5) 122.91(4) 124.41(6) ?
Bi I I . . 1_5545 126.20(4) 125.74(5) 126.44(3) ?
Bi I I . . 1_5565 55.66(4) 54.09(4) 57.33(6) ?
Bi I I . . 1_6555 56.55(4) 55.59(4) 57.09(4) ?
Bi I B . . 1_4555 124.37(5) 123.78(5) 124.96(5) ?
Bi I B . . 1_5545 124.22(4) 122.67(6) 125.81(4) ?
Bi I B . . . 91.53(5) 57.33(6) 125.74(5) ?
Bi I B . . 1_5565 53.78(4) 53.56(3) 54.26(5) ?
Bi I B . . 1_6555 55.68(3) 54.97(3) 56.40(3) ?
Bi I O2 . . . 138.0(8) 138.0(8) 138.0(8) ?
Bi I O2 . . 2_5555 62.6(12) 62.6(12) 62.6(12) ?
Bi I O2 . . 3_5555 114.3(12) 114.3(12) 114.3(12) ?
Bi I O2 . . 4_5555 44.2(9) 44.2(9) 44.2(9) ?
Bi I O3 . . 1_5545 107.0(13) 107.0(13) 107.0(13) ?
Bi I O3 . . 2_5545 135.3(8) 135.3(8) 135.3(8) ?
Bi I O3 . . 3_5565 70.4(13) 70.4(13) 70.4(13) ?
Bi I O3 . . 4_5565 41.3(8) 41.3(8) 41.3(8) ?
Bi I O4 . . . 86.2(18) 85.3(19) 87.2(18) ?
Bi I O4 . . 2_5555 93.9(18) 91.6(18) 96.2(18) ?
Bi I O4 . . 3_5555 144.9(5) 143.3(6) 146.4(5) ?
Bi I O4 . . 4_5555 35.2(5) 31.1(6) 39.3(4) ?
Bi I Bi 9_4445 . 2_5545 52.95(3) 52.59(3) 53.09(3) ?
Bi I Bi 9_4445 . 2_5555 52.95(3) 52.59(3) 53.09(3) ?
Bi I Bi 9_4445 . 2_6545 52.95(3) 52.59(3) 53.09(3) ?
Bi I Bi 9_4445 . 2_6555 52.95(3) 52.59(3) 53.09(3) ?
Bi I Bi 9_4445 . 10_5545 177.64(6) 176.53(8) 180 ?
Bi I I 9_4445 . 1_4555 90.0000(10) 90 90 ?
Bi I I 9_4445 . 1_5545 91.14(3) 90 91.73(4) ?
Bi I I 9_4445 . 1_5565 91.14(3) 90 91.73(4) ?
Bi I I 9_4445 . 1_6555 90.0000(10) 90 90 ?
Bi I B 9_4445 . 1_4555 90.0284(7) 90.0284(7) 90.0284(7) ?
Bi I B 9_4445 . 1_5545 88.77(3) 88.27(4) 89.8707(5) ?
Bi I B 9_4445 . . 91.70(4) 91.70(4) 91.70(4) ?
Bi I B 9_4445 . 1_5565 88.77(3) 88.27(4) 89.8707(5) ?
Bi I B 9_4445 . 1_6555 90.0284(7) 90.0284(7) 90.0284(7) ?
Bi I O2 9_4445 . . 13.5(15) 13.5(15) 13.5(15) ?
Bi I O2 9_4445 . 2_5555 163.1(15) 163.1(15) 163.1(15) ?
Bi I O2 9_4445 . 3_5555 13.5(15) 13.5(15) 13.5(15) ?
Bi I O2 9_4445 . 4_5555 163.1(15) 163.1(15) 163.1(15) ?
Bi I O3 9_4445 . 1_5545 88.42(4) 88.42(4) 88.42(4) ?
Bi I O3 9_4445 . 2_5545 88.42(4) 88.42(4) 88.42(4) ?
Bi I O3 9_4445 . 3_5565 88.42(4) 88.42(4) 88.42(4) ?
Bi I O3 9_4445 . 4_5565 88.42(4) 88.42(4) 88.42(4) ?
Bi I O4 9_4445 . . 52(2) 52(2) 52(2) ?
Bi I O4 9_4445 . 2_5555 128(2) 128(2) 128(2) ?
Bi I O4 9_4445 . 3_5555 52(2) 52(2) 52(2) ?
Bi I O4 9_4445 . 4_5555 128(2) 128(2) 128(2) ?
Bi I Bi 2_5545 . 2_5555 70.50(6) 68.43(6) 71.82(6) ?
Bi I Bi 2_5545 . 2_6545 66.90(5) 65.81(4) 68.82(5) ?
Bi I Bi 2_5545 . 2_6555 105.90(5) 105.61(5) 106.16(5) ?
Bi I Bi 2_5545 . 10_5545 127.02(5) 124.50(6) 129.77(6) ?
Bi I I 2_5545 . 1_4555 56.55(4) 55.59(4) 57.09(4) ?
Bi I I 2_5545 . 1_5545 55.66(4) 54.09(4) 57.33(6) ?
Bi I I 2_5545 . 1_5565 126.20(4) 125.74(5) 126.44(3) ?
Bi I I 2_5545 . 1_6555 123.45(5) 122.91(4) 124.41(6) ?
Bi I B 2_5545 . 1_4555 55.68(3) 54.97(3) 56.40(3) ?
Bi I B 2_5545 . 1_5545 53.78(4) 53.56(3) 54.26(5) ?
Bi I B 2_5545 . . 91.53(5) 57.33(6) 125.74(5) ?
Bi I B 2_5545 . 1_5565 124.22(4) 122.67(6) 125.81(4) ?
Bi I B 2_5545 . 1_6555 124.37(5) 123.78(5) 124.96(5) ?
Bi I O2 2_5545 . . 44.2(9) 44.2(9) 44.2(9) ?
Bi I O2 2_5545 . 2_5555 114.3(12) 114.3(12) 114.3(12) ?
Bi I O2 2_5545 . 3_5555 62.6(12) 62.6(12) 62.6(12) ?
Bi I O2 2_5545 . 4_5555 138.0(8) 138.0(8) 138.0(8) ?
Bi I O3 2_5545 . 1_5545 70.4(13) 70.4(13) 70.4(13) ?
Bi I O3 2_5545 . 2_5545 41.3(8) 41.3(8) 41.3(8) ?
Bi I O3 2_5545 . 3_5565 107.0(13) 107.0(13) 107.0(13) ?
Bi I O3 2_5545 . 4_5565 135.3(8) 135.3(8) 135.3(8) ?
Bi I O4 2_5545 . . 93.9(18) 91.6(18) 96.2(18) ?
Bi I O4 2_5545 . 2_5555 86.2(18) 85.3(19) 87.2(18) ?
Bi I O4 2_5545 . 3_5555 35.2(5) 31.1(6) 39.3(4) ?
Bi I O4 2_5545 . 4_5555 144.9(5) 143.3(6) 146.4(5) ?
Bi I Bi 2_5555 . 2_6545 105.90(5) 105.61(5) 106.16(5) ?
Bi I Bi 2_5555 . 2_6555 66.90(5) 65.81(4) 68.82(5) ?
Bi I Bi 2_5555 . 10_5545 127.02(5) 124.50(6) 129.77(6) ?
Bi I I 2_5555 . 1_4555 56.55(4) 55.59(4) 57.09(4) ?
Bi I I 2_5555 . 1_5545 126.20(4) 125.74(5) 126.44(3) ?
Bi I I 2_5555 . 1_5565 55.66(4) 54.09(4) 57.33(6) ?
Bi I I 2_5555 . 1_6555 123.45(5) 122.91(4) 124.41(6) ?
Bi I B 2_5555 . 1_4555 55.68(3) 54.97(3) 56.40(3) ?
Bi I B 2_5555 . 1_5545 124.22(4) 122.67(6) 125.81(4) ?
Bi I B 2_5555 . . 91.53(5) 57.33(6) 125.74(5) ?
Bi I B 2_5555 . 1_5565 53.78(4) 53.56(3) 54.26(5) ?
Bi I B 2_5555 . 1_6555 124.37(5) 123.78(5) 124.96(5) ?
Bi I O2 2_5555 . . 62.6(12) 62.6(12) 62.6(12) ?
Bi I O2 2_5555 . 2_5555 138.0(8) 138.0(8) 138.0(8) ?
Bi I O2 2_5555 . 3_5555 44.2(9) 44.2(9) 44.2(9) ?
Bi I O2 2_5555 . 4_5555 114.3(12) 114.3(12) 114.3(12) ?
Bi I O3 2_5555 . 1_5545 135.3(8) 135.3(8) 135.3(8) ?
Bi I O3 2_5555 . 2_5545 107.0(13) 107.0(13) 107.0(13) ?
Bi I O3 2_5555 . 3_5565 41.3(8) 41.3(8) 41.3(8) ?
Bi I O3 2_5555 . 4_5565 70.4(13) 70.4(13) 70.4(13) ?
Bi I O4 2_5555 . . 93.9(18) 91.6(18) 96.2(18) ?
Bi I O4 2_5555 . 2_5555 86.2(18) 85.3(19) 87.2(18) ?
Bi I O4 2_5555 . 3_5555 35.2(5) 31.1(6) 39.3(4) ?
Bi I O4 2_5555 . 4_5555 144.9(5) 143.3(6) 146.4(5) ?
Bi I Bi 2_6545 . 2_6555 70.50(6) 68.43(6) 71.82(6) ?
Bi I Bi 2_6545 . 10_5545 127.02(5) 124.50(6) 129.77(6) ?
Bi I I 2_6545 . 1_4555 123.45(5) 122.91(4) 124.41(6) ?
Bi I I 2_6545 . 1_5545 55.66(4) 54.09(4) 57.33(6) ?
Bi I I 2_6545 . 1_5565 126.20(4) 125.74(5) 126.44(3) ?
Bi I I 2_6545 . 1_6555 56.55(4) 55.59(4) 57.09(4) ?
Bi I B 2_6545 . 1_4555 124.37(5) 123.78(5) 124.96(5) ?
Bi I B 2_6545 . 1_5545 53.78(4) 53.56(3) 54.26(5) ?
Bi I B 2_6545 . . 91.53(5) 57.33(6) 125.74(5) ?
Bi I B 2_6545 . 1_5565 124.22(4) 122.67(6) 125.81(4) ?
Bi I B 2_6545 . 1_6555 55.68(3) 54.97(3) 56.40(3) ?
Bi I O2 2_6545 . . 44.2(9) 44.2(9) 44.2(9) ?
Bi I O2 2_6545 . 2_5555 114.3(12) 114.3(12) 114.3(12) ?
Bi I O2 2_6545 . 3_5555 62.6(12) 62.6(12) 62.6(12) ?
Bi I O2 2_6545 . 4_5555 138.0(8) 138.0(8) 138.0(8) ?
Bi I O3 2_6545 . 1_5545 41.3(8) 41.3(8) 41.3(8) ?
Bi I O3 2_6545 . 2_5545 70.4(13) 70.4(13) 70.4(13) ?
Bi I O3 2_6545 . 3_5565 135.3(8) 135.3(8) 135.3(8) ?
Bi I O3 2_6545 . 4_5565 107.0(13) 107.0(13) 107.0(13) ?
Bi I O4 2_6545 . . 35.2(5) 31.1(6) 39.3(4) ?
Bi I O4 2_6545 . 2_5555 144.9(5) 143.3(6) 146.4(5) ?
Bi I O4 2_6545 . 3_5555 93.9(18) 91.6(18) 96.2(18) ?
Bi I O4 2_6545 . 4_5555 86.2(18) 85.3(19) 87.2(18) ?
Bi I Bi 2_6555 . 10_5545 127.02(5) 124.50(6) 129.77(6) ?
Bi I I 2_6555 . 1_4555 123.45(5) 122.91(4) 124.41(6) ?
Bi I I 2_6555 . 1_5545 126.20(4) 125.74(5) 126.44(3) ?
Bi I I 2_6555 . 1_5565 55.66(4) 54.09(4) 57.33(6) ?
Bi I I 2_6555 . 1_6555 56.55(4) 55.59(4) 57.09(4) ?
Bi I B 2_6555 . 1_4555 124.37(5) 123.78(5) 124.96(5) ?
Bi I B 2_6555 . 1_5545 124.22(4) 122.67(6) 125.81(4) ?
Bi I B 2_6555 . . 91.53(5) 57.33(6) 125.74(5) ?
Bi I B 2_6555 . 1_5565 53.78(4) 53.56(3) 54.26(5) ?
Bi I B 2_6555 . 1_6555 55.68(3) 54.97(3) 56.40(3) ?
Bi I O2 2_6555 . . 62.6(12) 62.6(12) 62.6(12) ?
Bi I O2 2_6555 . 2_5555 138.0(8) 138.0(8) 138.0(8) ?
Bi I O2 2_6555 . 3_5555 44.2(9) 44.2(9) 44.2(9) ?
Bi I O2 2_6555 . 4_5555 114.3(12) 114.3(12) 114.3(12) ?
Bi I O3 2_6555 . 1_5545 107.0(13) 107.0(13) 107.0(13) ?
Bi I O3 2_6555 . 2_5545 135.3(8) 135.3(8) 135.3(8) ?
Bi I O3 2_6555 . 3_5565 70.4(13) 70.4(13) 70.4(13) ?
Bi I O3 2_6555 . 4_5565 41.3(8) 41.3(8) 41.3(8) ?
Bi I O4 2_6555 . . 35.2(5) 31.1(6) 39.3(4) ?
Bi I O4 2_6555 . 2_5555 144.9(5) 143.3(6) 146.4(5) ?
Bi I O4 2_6555 . 3_5555 93.9(18) 91.6(18) 96.2(18) ?
Bi I O4 2_6555 . 4_5555 86.2(18) 85.3(19) 87.2(18) ?
Bi I I 10_5545 . 1_4555 90.0000(10) 90 90 ?
Bi I I 10_5545 . 1_5545 91.14(3) 90 91.73(4) ?
Bi I I 10_5545 . 1_5565 91.14(3) 90 91.73(4) ?
Bi I I 10_5545 . 1_6555 90.0000(10) 90 90 ?
Bi I B 10_5545 . 1_4555 90.0284(7) 90.0284(7) 90.0284(7) ?
Bi I B 10_5545 . 1_5545 88.77(3) 88.27(4) 89.8707(5) ?
Bi I B 10_5545 . . 91.70(4) 91.70(4) 91.70(4) ?
Bi I B 10_5545 . 1_5565 88.77(3) 88.27(4) 89.8707(5) ?
Bi I B 10_5545 . 1_6555 90.0284(7) 90.0284(7) 90.0284(7) ?
Bi I O2 10_5545 . . 163.1(15) 163.1(15) 163.1(15) ?
Bi I O2 10_5545 . 2_5555 13.5(15) 13.5(15) 13.5(15) ?
Bi I O2 10_5545 . 3_5555 163.1(15) 163.1(15) 163.1(15) ?
Bi I O2 10_5545 . 4_5555 13.5(15) 13.5(15) 13.5(15) ?
Bi I O3 10_5545 . 1_5545 88.42(4) 88.42(4) 88.42(4) ?
Bi I O3 10_5545 . 2_5545 88.42(4) 88.42(4) 88.42(4) ?
Bi I O3 10_5545 . 3_5565 88.42(4) 88.42(4) 88.42(4) ?
Bi I O3 10_5545 . 4_5565 88.42(4) 88.42(4) 88.42(4) ?
Bi I O4 10_5545 . . 128(2) 128(2) 128(2) ?
Bi I O4 10_5545 . 2_5555 52(2) 52(2) 52(2) ?
Bi I O4 10_5545 . 3_5555 128(2) 128(2) 128(2) ?
Bi I O4 10_5545 . 4_5555 52(2) 52(2) 52(2) ?
I I I 1_4555 . 1_5545 90.00(3) 90 90 ?
I I I 1_4555 . 1_5565 90.00(3) 90 90 ?
I I I 1_4555 . 1_6555 180 180 180 ?
I I B 1_4555 . 1_4555 0.96(4) 0.96(4) 0.96(4) ?
I I B 1_4555 . 1_5545 90.00(3) 90.00(6) 90.00(6) ?
I I B 1_4555 . . 90.00(6) 90.00(6) 90.00(6) ?
I I B 1_4555 . 1_5565 90.00(3) 90.0000(2) 90.0000(2) ?
I I B 1_4555 . 1_6555 179.04(9) 179.04(9) 179.04(9) ?
I I O2 1_4555 . . 90.000(15) 90.000(15) 90.000(15) ?
I I O2 1_4555 . 2_5555 90.000(15) 90.000(15) 90.000(15) ?
I I O2 1_4555 . 3_5555 90.000(15) 90.000(15) 90.000(15) ?
I I O2 1_4555 . 4_5555 90.000(15) 90.000(15) 90.000(15) ?
I I O3 1_4555 . 1_5545 111.7(17) 111.7(17) 111.7(17) ?
I I O3 1_4555 . 2_5545 68.3(16) 68.3(16) 68.3(16) ?
I I O3 1_4555 . 3_5565 68.3(16) 68.3(16) 68.3(16) ?
I I O3 1_4555 . 4_5565 111.7(17) 111.7(17) 111.7(17) ?
I I O4 1_4555 . . 141(2) 141(2) 141(2) ?
I I O4 1_4555 . 2_5555 39(2) 39(2) 39(2) ?
I I O4 1_4555 . 3_5555 39(2) 39(2) 39(2) ?
I I O4 1_4555 . 4_5555 141(2) 141(2) 141(2) ?
I I I 1_5545 . 1_5565 180 180 180 ?
I I I 1_5545 . 1_6555 90.00(5) 90.00(4) 90.00(4) ?
I I B 1_5545 . 1_4555 89.04(4) 89.04(4) 89.04(4) ?
I I B 1_5545 . . 0 0 0 ?
I I B 1_5545 . 1_5565 180 180 180 ?
I I B 1_5545 . 1_6555 89.04(4) 89.04(4) 89.04(4) ?
I I O2 1_5545 . 3_5555 105.2(15) 105.2(15) 105.2(15) ?
I I O2 1_5545 . 4_5555 105.2(15) 105.2(15) 105.2(15) ?
I I O3 1_5545 . 3_5565 158.3(16) 158.3(16) 158.3(16) ?
I I O3 1_5545 . 4_5565 158.3(16) 158.3(16) 158.3(16) ?
I I O4 1_5545 . . 87.10(17) 87.10(17) 87.10(17) ?
I I O4 1_5545 . 2_5555 87.10(17) 87.10(17) 87.10(17) ?
I I O4 1_5545 . 3_5555 87.10(17) 87.10(17) 87.10(17) ?
I I O4 1_5545 . 4_5555 87.10(17) 87.10(17) 87.10(17) ?
I I I 1_5565 . 1_6555 90.00(5) 90.00(4) 90.00(4) ?
I I B 1_5565 . 1_4555 89.04(4) 89.04(4) 89.04(4) ?
I I B 1_5565 . 1_5545 180 180 180 ?
I I B 1_5565 . . 0 0 0 ?
I I B 1_5565 . 1_6555 89.04(4) 89.04(4) 89.04(4) ?
I I O2 1_5565 . . 105.2(15) 105.2(15) 105.2(15) ?
I I O2 1_5565 . 2_5555 105.2(15) 105.2(15) 105.2(15) ?
I I O3 1_5565 . 1_5545 158.3(16) 158.3(16) 158.3(16) ?
I I O3 1_5565 . 2_5545 158.3(16) 158.3(16) 158.3(16) ?
I I O4 1_5565 . . 87.10(17) 87.10(17) 87.10(17) ?
I I O4 1_5565 . 2_5555 87.10(17) 87.10(17) 87.10(17) ?
I I O4 1_5565 . 3_5555 87.10(17) 87.10(17) 87.10(17) ?
I I O4 1_5565 . 4_5555 87.10(17) 87.10(17) 87.10(17) ?
I I B 1_6555 . 1_4555 179.04(9) 179.04(9) 179.04(9) ?
I I B 1_6555 . 1_5545 90.00(3) 90.00(6) 90.00(6) ?
I I B 1_6555 . . 90.00(6) 90.00(6) 90.00(6) ?
I I B 1_6555 . 1_5565 90.00(3) 90.0000(2) 90.0000(2) ?
I I B 1_6555 . 1_6555 0.96(4) 0.96(4) 0.96(4) ?
I I O2 1_6555 . . 90.000(15) 90.000(15) 90.000(15) ?
I I O2 1_6555 . 2_5555 90.000(15) 90.000(15) 90.000(15) ?
I I O2 1_6555 . 3_5555 90.000(15) 90.000(15) 90.000(15) ?
I I O2 1_6555 . 4_5555 90.000(15) 90.000(15) 90.000(15) ?
I I O3 1_6555 . 1_5545 68.3(16) 68.3(16) 68.3(16) ?
I I O3 1_6555 . 2_5545 111.7(17) 111.7(17) 111.7(17) ?
I I O3 1_6555 . 3_5565 111.7(17) 111.7(17) 111.7(17) ?
I I O3 1_6555 . 4_5565 68.3(16) 68.3(16) 68.3(16) ?
I I O4 1_6555 . . 39(2) 39(2) 39(2) ?
I I O4 1_6555 . 2_5555 141(2) 141(2) 141(2) ?
I I O4 1_6555 . 3_5555 141(2) 141(2) 141(2) ?
I I O4 1_6555 . 4_5555 39(2) 39(2) 39(2) ?
B I B 1_4555 . 1_5545 90.96(4) 90.96(4) 90.96(4) ?
B I B 1_4555 . . 89.04(4) 89.04(4) 89.04(4) ?
B I B 1_4555 . 1_5565 90.96(4) 90.96(4) 90.96(4) ?
B I B 1_4555 . 1_6555 178.08(8) 178.08(8) 178.08(8) ?
B I O2 1_4555 . . 90.25(3) 90.25(3) 90.25(3) ?
B I O2 1_4555 . 2_5555 90.25(3) 90.25(3) 90.25(3) ?
B I O2 1_4555 . 3_5555 90.25(3) 90.25(3) 90.25(3) ?
B I O2 1_4555 . 4_5555 90.25(3) 90.25(3) 90.25(3) ?
B I O3 1_4555 . 1_5545 112.6(17) 112.6(17) 112.6(17) ?
B I O3 1_4555 . 2_5545 69.3(16) 69.3(16) 69.3(16) ?
B I O3 1_4555 . 3_5565 69.3(16) 69.3(16) 69.3(16) ?
B I O3 1_4555 . 4_5565 112.6(17) 112.6(17) 112.6(17) ?
B I O4 1_4555 . . 141(2) 141(2) 141(2) ?
B I O4 1_4555 . 2_5555 38(2) 38(2) 38(2) ?
B I O4 1_4555 . 3_5555 38(2) 38(2) 38(2) ?
B I O4 1_4555 . 4_5555 141(2) 141(2) 141(2) ?
B I B 1_5545 . . 180 180 180 ?
B I B 1_5545 . 1_6555 90.96(4) 90.96(4) 90.96(4) ?
B I O2 1_5545 . . 74.8(15) 74.8(15) 74.8(15) ?
B I O2 1_5545 . 2_5555 74.8(15) 74.8(15) 74.8(15) ?
B I O3 1_5545 . 1_5545 21.7(16) 21.7(16) 21.7(16) ?
B I O3 1_5545 . 2_5545 21.7(16) 21.7(16) 21.7(16) ?
B I O4 1_5545 . . 92.90(17) 92.90(17) 92.90(17) ?
B I O4 1_5545 . 2_5555 92.90(17) 92.90(17) 92.90(17) ?
B I O4 1_5545 . 3_5555 92.90(17) 92.90(17) 92.90(17) ?
B I O4 1_5545 . 4_5555 92.90(17) 92.90(17) 92.90(17) ?
B I B . . 1_5565 180 180 180 ?
B I B . . 1_6555 89.04(4) 89.04(4) 89.04(4) ?
B I O2 . . . 105.2(15) 105.2(15) 105.2(15) ?
B I O2 . . 2_5555 105.2(15) 105.2(15) 105.2(15) ?
B I O2 . . 3_5555 105.2(15) 105.2(15) 105.2(15) ?
B I O2 . . 4_5555 105.2(15) 105.2(15) 105.2(15) ?
B I O3 . . 1_5545 158.3(16) 158.3(16) 158.3(16) ?
B I O3 . . 2_5545 158.3(16) 158.3(16) 158.3(16) ?
B I O3 . . 3_5565 158.3(16) 158.3(16) 158.3(16) ?
B I O3 . . 4_5565 158.3(16) 158.3(16) 158.3(16) ?
B I O4 . . . 87.10(17) 87.10(17) 87.10(17) ?
B I O4 . . 2_5555 87.10(17) 87.10(17) 87.10(17) ?
B I O4 . . 3_5555 87.10(17) 87.10(17) 87.10(17) ?
B I O4 . . 4_5555 87.10(17) 87.10(17) 87.10(17) ?
B I B 1_5565 . 1_6555 90.96(4) 90.96(4) 90.96(4) ?
B I O2 1_5565 . 3_5555 74.8(15) 74.8(15) 74.8(15) ?
B I O2 1_5565 . 4_5555 74.8(15) 74.8(15) 74.8(15) ?
B I O3 1_5565 . 3_5565 21.7(16) 21.7(16) 21.7(16) ?
B I O3 1_5565 . 4_5565 21.7(16) 21.7(16) 21.7(16) ?
B I O4 1_5565 . . 92.90(17) 92.90(17) 92.90(17) ?
B I O4 1_5565 . 2_5555 92.90(17) 92.90(17) 92.90(17) ?
B I O4 1_5565 . 3_5555 92.90(17) 92.90(17) 92.90(17) ?
B I O4 1_5565 . 4_5555 92.90(17) 92.90(17) 92.90(17) ?
B I O2 1_6555 . . 90.25(3) 90.25(3) 90.25(3) ?
B I O2 1_6555 . 2_5555 90.25(3) 90.25(3) 90.25(3) ?
B I O2 1_6555 . 3_5555 90.25(3) 90.25(3) 90.25(3) ?
B I O2 1_6555 . 4_5555 90.25(3) 90.25(3) 90.25(3) ?
B I O3 1_6555 . 1_5545 69.3(16) 69.3(16) 69.3(16) ?
B I O3 1_6555 . 2_5545 112.6(17) 112.6(17) 112.6(17) ?
B I O3 1_6555 . 3_5565 112.6(17) 112.6(17) 112.6(17) ?
B I O3 1_6555 . 4_5565 69.3(16) 69.3(16) 69.3(16) ?
B I O4 1_6555 . . 38(2) 38(2) 38(2) ?
B I O4 1_6555 . 2_5555 141(2) 141(2) 141(2) ?
B I O4 1_6555 . 3_5555 141(2) 141(2) 141(2) ?
B I O4 1_6555 . 4_5555 38(2) 38(2) 38(2) ?
O2 I O2 . . 2_5555 150(2) 150(2) 150(2) ?
O2 I O3 . . 1_5545 75.9(14) 75.9(14) 75.9(14) ?
O2 I O3 . . 2_5545 75.9(14) 75.9(14) 75.9(14) ?
O2 I O4 . . . 54(2) 54(2) 54(2) ?
O2 I O4 . . 2_5555 128(2) 128(2) 128(2) ?
O2 I O4 . . 3_5555 54(2) 54(2) 54(2) ?
O2 I O4 . . 4_5555 128(2) 128(2) 128(2) ?
O2 I O3 2_5555 . 1_5545 75.9(14) 75.9(14) 75.9(14) ?
O2 I O3 2_5555 . 2_5545 75.9(14) 75.9(14) 75.9(14) ?
O2 I O4 2_5555 . . 128(2) 128(2) 128(2) ?
O2 I O4 2_5555 . 2_5555 54(2) 54(2) 54(2) ?
O2 I O4 2_5555 . 3_5555 128(2) 128(2) 128(2) ?
O2 I O4 2_5555 . 4_5555 54(2) 54(2) 54(2) ?
O2 I O2 3_5555 . 4_5555 150(2) 150(2) 150(2) ?
O2 I O3 3_5555 . 3_5565 75.9(14) 75.9(14) 75.9(14) ?
O2 I O3 3_5555 . 4_5565 75.9(14) 75.9(14) 75.9(14) ?
O2 I O4 3_5555 . . 54(2) 54(2) 54(2) ?
O2 I O4 3_5555 . 2_5555 128(2) 128(2) 128(2) ?
O2 I O4 3_5555 . 3_5555 54(2) 54(2) 54(2) ?
O2 I O4 3_5555 . 4_5555 128(2) 128(2) 128(2) ?
O2 I O3 4_5555 . 3_5565 75.9(14) 75.9(14) 75.9(14) ?
O2 I O3 4_5555 . 4_5565 75.9(14) 75.9(14) 75.9(14) ?
O2 I O4 4_5555 . . 128(2) 128(2) 128(2) ?
O2 I O4 4_5555 . 2_5555 54(2) 54(2) 54(2) ?
O2 I O4 4_5555 . 3_5555 128(2) 128(2) 128(2) ?
O2 I O4 4_5555 . 4_5555 54(2) 54(2) 54(2) ?
O3 I O3 1_5545 . 2_5545 43(2) 43(2) 43(2) ?
O3 I O4 1_5545 . . 76.0(14) 76.0(14) 76.0(14) ?
O3 I O4 1_5545 . 2_5555 109.6(14) 109.6(14) 109.6(14) ?
O3 I O4 1_5545 . 3_5555 109.6(14) 109.6(14) 109.6(14) ?
O3 I O4 1_5545 . 4_5555 76.0(14) 76.0(14) 76.0(14) ?
O3 I O4 2_5545 . . 109.6(14) 109.6(14) 109.6(14) ?
O3 I O4 2_5545 . 2_5555 76.0(14) 76.0(14) 76.0(14) ?
O3 I O4 2_5545 . 3_5555 76.0(14) 76.0(14) 76.0(14) ?
O3 I O4 2_5545 . 4_5555 109.6(14) 109.6(14) 109.6(14) ?
O3 I O3 3_5565 . 4_5565 43(2) 43(2) 43(2) ?
O3 I O4 3_5565 . . 109.6(14) 109.6(14) 109.6(14) ?
O3 I O4 3_5565 . 2_5555 76.0(14) 76.0(14) 76.0(14) ?
O3 I O4 3_5565 . 3_5555 76.0(14) 76.0(14) 76.0(14) ?
O3 I O4 3_5565 . 4_5555 109.6(14) 109.6(14) 109.6(14) ?
O3 I O4 4_5565 . . 76.0(14) 76.0(14) 76.0(14) ?
O3 I O4 4_5565 . 2_5555 109.6(14) 109.6(14) 109.6(14) ?
O3 I O4 4_5565 . 3_5555 109.6(14) 109.6(14) 109.6(14) ?
O3 I O4 4_5565 . 4_5555 76.0(14) 76.0(14) 76.0(14) ?
O4 I O4 . . 2_5555 174.2(3) 174.2(3) 174.2(3) ?
O4 I O4 . . 3_5555 103(3) 103(3) 103(3) ?
O4 I O4 . . 4_5555 77(3) 77(3) 77(3) ?
O4 I O4 2_5555 . 3_5555 77(3) 77(3) 77(3) ?
O4 I O4 2_5555 . 4_5555 103(3) 103(3) 103(3) ?
O4 I O4 3_5555 . 4_5555 174.2(3) 174.2(3) 174.2(3) ?
Bi B Bi 1_4545 . 1_4555 66.92(6) 66.18(6) 68.38(6) ?
Bi B Bi 1_4545 . 1_5545 70.25(4) 67.71(4) 71.37(4) ?
Bi B Bi 1_4545 . . 105.66(5) 105.51(5) 105.86(5) ?
Bi B Bi 1_4545 . 2_5545 74.28(5) 70.62(5) 78.13(5) ?
Bi B Bi 1_4545 . 2_5555 109.63(4) 108.84(4) 111.10(4) ?
Bi B Bi 1_4545 . 2_6545 113.09(6) 106.79(6) 117.17(6) ?
Bi B Bi 1_4545 . 2_6555 176.71(5) 174.93(5) 180 ?
Bi B I 1_4545 . 1_4555 55.63(4) 55.46(4) 55.81(4) ?
Bi B I 1_4545 . 1_5545 58.15(3) 57.06(4) 58.59(3) ?
Bi B I 1_4545 . . 87.57(4) 53.39(4) 121.75(4) ?
Bi B I 1_4545 . 1_5565 125.07(3) 123.25(4) 126.61(4) ?
Bi B I 1_4545 . 1_6555 124.29(4) 123.16(4) 125.42(4) ?
Bi B O2 1_4545 . . 113.8(11) 111.5(12) 116.0(11) ?
Bi B O2 1_4545 . 2_5555 41.9(7) 40.4(7) 42.9(8) ?
Bi B O2 1_4545 . 3_5555 138.1(7) 137.1(8) 139.6(7) ?
Bi B O2 1_4545 . 4_5555 66.1(11) 64.0(11) 68.5(12) ?
Bi B O3 1_4545 . 1_5545 70.3(12) 68.8(12) 72.0(12) ?
Bi B O3 1_4545 . 2_5545 42.4(8) 41.0(7) 44.1(8) ?
Bi B O3 1_4545 . 3_5565 106.8(12) 106.5(12) 107.7(12) ?
Bi B O3 1_4545 . 4_5565 134.3(8) 133.7(8) 135.6(8) ?
Bi B O4 1_4545 . . 145.7(5) 142.7(4) 147.5(5) ?
Bi B O4 1_4545 . 2_5555 34.3(5) 32.5(5) 37.3(4) ?
Bi B O4 1_4545 . 3_5555 85.7(18) 85.1(18) 86.8(19) ?
Bi B O4 1_4545 . 4_5555 94.3(18) 93.2(19) 94.9(18) ?
Bi B Bi 1_4555 . 1_5545 105.66(5) 105.51(5) 105.86(5) ?
Bi B Bi 1_4555 . . 70.25(4) 67.71(4) 71.37(4) ?
Bi B Bi 1_4555 . 2_5545 109.63(4) 108.84(4) 111.10(4) ?
Bi B Bi 1_4555 . 2_5555 74.28(5) 70.62(5) 78.13(5) ?
Bi B Bi 1_4555 . 2_6545 176.71(5) 174.93(5) 180 ?
Bi B Bi 1_4555 . 2_6555 113.09(6) 106.79(6) 117.17(6) ?
Bi B I 1_4555 . 1_4555 55.63(4) 55.46(4) 55.81(4) ?
Bi B I 1_4555 . 1_5545 125.07(3) 123.25(4) 126.61(4) ?
Bi B I 1_4555 . . 87.57(4) 53.39(4) 121.75(4) ?
Bi B I 1_4555 . 1_5565 58.15(3) 57.06(4) 58.59(3) ?
Bi B I 1_4555 . 1_6555 124.29(4) 123.16(4) 125.42(4) ?
Bi B O2 1_4555 . . 138.1(7) 137.1(8) 139.6(7) ?
Bi B O2 1_4555 . 2_5555 66.1(11) 64.0(11) 68.5(12) ?
Bi B O2 1_4555 . 3_5555 113.8(11) 111.5(12) 116.0(11) ?
Bi B O2 1_4555 . 4_5555 41.9(7) 40.4(7) 42.9(8) ?
Bi B O3 1_4555 . 1_5545 134.3(8) 133.7(8) 135.6(8) ?
Bi B O3 1_4555 . 2_5545 106.8(12) 106.5(12) 107.7(12) ?
Bi B O3 1_4555 . 3_5565 42.4(8) 41.0(7) 44.1(8) ?
Bi B O3 1_4555 . 4_5565 70.3(12) 68.8(12) 72.0(12) ?
Bi B O4 1_4555 . . 145.7(5) 142.7(4) 147.5(5) ?
Bi B O4 1_4555 . 2_5555 34.3(5) 32.5(5) 37.3(4) ?
Bi B O4 1_4555 . 3_5555 85.7(18) 85.1(18) 86.8(19) ?
Bi B O4 1_4555 . 4_5555 94.3(18) 93.2(19) 94.9(18) ?
Bi B Bi 1_5545 . . 66.92(6) 66.18(6) 68.38(6) ?
Bi B Bi 1_5545 . 2_5545 113.09(6) 106.79(6) 117.17(6) ?
Bi B Bi 1_5545 . 2_5555 176.71(5) 174.93(5) 180 ?
Bi B Bi 1_5545 . 2_6545 74.28(5) 70.62(5) 78.13(5) ?
Bi B Bi 1_5545 . 2_6555 109.63(4) 108.84(4) 111.10(4) ?
Bi B I 1_5545 . 1_4555 124.29(4) 123.16(4) 125.42(4) ?
Bi B I 1_5545 . 1_5545 58.15(3) 57.06(4) 58.59(3) ?
Bi B I 1_5545 . . 87.57(4) 53.39(4) 121.75(4) ?
Bi B I 1_5545 . 1_5565 125.07(3) 123.25(4) 126.61(4) ?
Bi B I 1_5545 . 1_6555 55.63(4) 55.46(4) 55.81(4) ?
Bi B O2 1_5545 . . 113.8(11) 111.5(12) 116.0(11) ?
Bi B O2 1_5545 . 2_5555 41.9(7) 40.4(7) 42.9(8) ?
Bi B O2 1_5545 . 3_5555 138.1(7) 137.1(8) 139.6(7) ?
Bi B O2 1_5545 . 4_5555 66.1(11) 64.0(11) 68.5(12) ?
Bi B O3 1_5545 . 1_5545 42.4(8) 41.0(7) 44.1(8) ?
Bi B O3 1_5545 . 2_5545 70.3(12) 68.8(12) 72.0(12) ?
Bi B O3 1_5545 . 3_5565 134.3(8) 133.7(8) 135.6(8) ?
Bi B O3 1_5545 . 4_5565 106.8(12) 106.5(12) 107.7(12) ?
Bi B O4 1_5545 . . 85.7(18) 85.1(18) 86.8(19) ?
Bi B O4 1_5545 . 2_5555 94.3(18) 93.2(19) 94.9(18) ?
Bi B O4 1_5545 . 3_5555 145.7(5) 142.7(4) 147.5(5) ?
Bi B O4 1_5545 . 4_5555 34.3(5) 32.5(5) 37.3(4) ?
Bi B Bi . . 2_5545 176.71(5) 174.93(5) 180 ?
Bi B Bi . . 2_5555 113.09(6) 106.79(6) 117.17(6) ?
Bi B Bi . . 2_6545 109.63(4) 108.84(4) 111.10(4) ?
Bi B Bi . . 2_6555 74.28(5) 70.62(5) 78.13(5) ?
Bi B I . . 1_4555 124.29(4) 123.16(4) 125.42(4) ?
Bi B I . . 1_5545 125.07(3) 123.25(4) 126.61(4) ?
Bi B I . . . 87.57(4) 53.39(4) 121.75(4) ?
Bi B I . . 1_5565 58.15(3) 57.06(4) 58.59(3) ?
Bi B I . . 1_6555 55.63(4) 55.46(4) 55.81(4) ?
Bi B O2 . . . 138.1(7) 137.1(8) 139.6(7) ?
Bi B O2 . . 2_5555 66.1(11) 64.0(11) 68.5(12) ?
Bi B O2 . . 3_5555 113.8(11) 111.5(12) 116.0(11) ?
Bi B O2 . . 4_5555 41.9(7) 40.4(7) 42.9(8) ?
Bi B O3 . . 1_5545 106.8(12) 106.5(12) 107.7(12) ?
Bi B O3 . . 2_5545 134.3(8) 133.7(8) 135.6(8) ?
Bi B O3 . . 3_5565 70.3(12) 68.8(12) 72.0(12) ?
Bi B O3 . . 4_5565 42.4(8) 41.0(7) 44.1(8) ?
Bi B O4 . . . 85.7(18) 85.1(18) 86.8(19) ?
Bi B O4 . . 2_5555 94.3(18) 93.2(19) 94.9(18) ?
Bi B O4 . . 3_5555 145.7(5) 142.7(4) 147.5(5) ?
Bi B O4 . . 4_5555 34.3(5) 32.5(5) 37.3(4) ?
Bi B Bi 2_5545 . 2_5555 66.92(6) 66.18(6) 68.38(6) ?
Bi B Bi 2_5545 . 2_6545 70.25(4) 67.71(4) 71.37(4) ?
Bi B Bi 2_5545 . 2_6555 105.66(5) 105.51(5) 105.86(5) ?
Bi B I 2_5545 . 1_4555 55.63(4) 55.46(4) 55.81(4) ?
Bi B I 2_5545 . 1_5545 58.15(3) 57.06(4) 58.59(3) ?
Bi B I 2_5545 . . 87.57(4) 53.39(4) 121.75(4) ?
Bi B I 2_5545 . 1_5565 125.07(3) 123.25(4) 126.61(4) ?
Bi B I 2_5545 . 1_6555 124.29(4) 123.16(4) 125.42(4) ?
Bi B O2 2_5545 . . 41.9(7) 40.4(7) 42.9(8) ?
Bi B O2 2_5545 . 2_5555 113.8(11) 111.5(12) 116.0(11) ?
Bi B O2 2_5545 . 3_5555 66.1(11) 64.0(11) 68.5(12) ?
Bi B O2 2_5545 . 4_5555 138.1(7) 137.1(8) 139.6(7) ?
Bi B O3 2_5545 . 1_5545 70.3(12) 68.8(12) 72.0(12) ?
Bi B O3 2_5545 . 2_5545 42.4(8) 41.0(7) 44.1(8) ?
Bi B O3 2_5545 . 3_5565 106.8(12) 106.5(12) 107.7(12) ?
Bi B O3 2_5545 . 4_5565 134.3(8) 133.7(8) 135.6(8) ?
Bi B O4 2_5545 . . 94.3(18) 93.2(19) 94.9(18) ?
Bi B O4 2_5545 . 2_5555 85.7(18) 85.1(18) 86.8(19) ?
Bi B O4 2_5545 . 3_5555 34.3(5) 32.5(5) 37.3(4) ?
Bi B O4 2_5545 . 4_5555 145.7(5) 142.7(4) 147.5(5) ?
Bi B Bi 2_5555 . 2_6545 105.66(5) 105.51(5) 105.86(5) ?
Bi B Bi 2_5555 . 2_6555 70.25(4) 67.71(4) 71.37(4) ?
Bi B I 2_5555 . 1_4555 55.63(4) 55.46(4) 55.81(4) ?
Bi B I 2_5555 . 1_5545 125.07(3) 123.25(4) 126.61(4) ?
Bi B I 2_5555 . . 87.57(4) 53.39(4) 121.75(4) ?
Bi B I 2_5555 . 1_5565 58.15(3) 57.06(4) 58.59(3) ?
Bi B I 2_5555 . 1_6555 124.29(4) 123.16(4) 125.42(4) ?
Bi B O2 2_5555 . . 66.1(11) 64.0(11) 68.5(12) ?
Bi B O2 2_5555 . 2_5555 138.1(7) 137.1(8) 139.6(7) ?
Bi B O2 2_5555 . 3_5555 41.9(7) 40.4(7) 42.9(8) ?
Bi B O2 2_5555 . 4_5555 113.8(11) 111.5(12) 116.0(11) ?
Bi B O3 2_5555 . 1_5545 134.3(8) 133.7(8) 135.6(8) ?
Bi B O3 2_5555 . 2_5545 106.8(12) 106.5(12) 107.7(12) ?
Bi B O3 2_5555 . 3_5565 42.4(8) 41.0(7) 44.1(8) ?
Bi B O3 2_5555 . 4_5565 70.3(12) 68.8(12) 72.0(12) ?
Bi B O4 2_5555 . . 94.3(18) 93.2(19) 94.9(18) ?
Bi B O4 2_5555 . 2_5555 85.7(18) 85.1(18) 86.8(19) ?
Bi B O4 2_5555 . 3_5555 34.3(5) 32.5(5) 37.3(4) ?
Bi B O4 2_5555 . 4_5555 145.7(5) 142.7(4) 147.5(5) ?
Bi B Bi 2_6545 . 2_6555 66.92(6) 66.18(6) 68.38(6) ?
Bi B I 2_6545 . 1_4555 124.29(4) 123.16(4) 125.42(4) ?
Bi B I 2_6545 . 1_5545 58.15(3) 57.06(4) 58.59(3) ?
Bi B I 2_6545 . . 87.57(4) 53.39(4) 121.75(4) ?
Bi B I 2_6545 . 1_5565 125.07(3) 123.25(4) 126.61(4) ?
Bi B I 2_6545 . 1_6555 55.63(4) 55.46(4) 55.81(4) ?
Bi B O2 2_6545 . . 41.9(7) 40.4(7) 42.9(8) ?
Bi B O2 2_6545 . 2_5555 113.8(11) 111.5(12) 116.0(11) ?
Bi B O2 2_6545 . 3_5555 66.1(11) 64.0(11) 68.5(12) ?
Bi B O2 2_6545 . 4_5555 138.1(7) 137.1(8) 139.6(7) ?
Bi B O3 2_6545 . 1_5545 42.4(8) 41.0(7) 44.1(8) ?
Bi B O3 2_6545 . 2_5545 70.3(12) 68.8(12) 72.0(12) ?
Bi B O3 2_6545 . 3_5565 134.3(8) 133.7(8) 135.6(8) ?
Bi B O3 2_6545 . 4_5565 106.8(12) 106.5(12) 107.7(12) ?
Bi B O4 2_6545 . . 34.3(5) 32.5(5) 37.3(4) ?
Bi B O4 2_6545 . 2_5555 145.7(5) 142.7(4) 147.5(5) ?
Bi B O4 2_6545 . 3_5555 94.3(18) 93.2(19) 94.9(18) ?
Bi B O4 2_6545 . 4_5555 85.7(18) 85.1(18) 86.8(19) ?
Bi B I 2_6555 . 1_4555 124.29(4) 123.16(4) 125.42(4) ?
Bi B I 2_6555 . 1_5545 125.07(3) 123.25(4) 126.61(4) ?
Bi B I 2_6555 . . 87.57(4) 53.39(4) 121.75(4) ?
Bi B I 2_6555 . 1_5565 58.15(3) 57.06(4) 58.59(3) ?
Bi B I 2_6555 . 1_6555 55.63(4) 55.46(4) 55.81(4) ?
Bi B O2 2_6555 . . 66.1(11) 64.0(11) 68.5(12) ?
Bi B O2 2_6555 . 2_5555 138.1(7) 137.1(8) 139.6(7) ?
Bi B O2 2_6555 . 3_5555 41.9(7) 40.4(7) 42.9(8) ?
Bi B O2 2_6555 . 4_5555 113.8(11) 111.5(12) 116.0(11) ?
Bi B O3 2_6555 . 1_5545 106.8(12) 106.5(12) 107.7(12) ?
Bi B O3 2_6555 . 2_5545 134.3(8) 133.7(8) 135.6(8) ?
Bi B O3 2_6555 . 3_5565 70.3(12) 68.8(12) 72.0(12) ?
Bi B O3 2_6555 . 4_5565 42.4(8) 41.0(7) 44.1(8) ?
Bi B O4 2_6555 . . 34.3(5) 32.5(5) 37.3(4) ?
Bi B O4 2_6555 . 2_5555 145.7(5) 142.7(4) 147.5(5) ?
Bi B O4 2_6555 . 3_5555 94.3(18) 93.2(19) 94.9(18) ?
Bi B O4 2_6555 . 4_5555 85.7(18) 85.1(18) 86.8(19) ?
I B I 1_4555 . . 89.04(4) 89.04(4) 89.04(4) ?
I B I 1_4555 . 1_6555 178.08(6) 178.08(6) 178.08(6) ?
I B O2 1_4555 . . 89.70(3) 89.70(3) 89.70(3) ?
I B O2 1_4555 . 2_5555 89.70(3) 89.70(3) 89.70(3) ?
I B O2 1_4555 . 3_5555 89.70(3) 89.70(3) 89.70(3) ?
I B O2 1_4555 . 4_5555 89.70(3) 89.70(3) 89.70(3) ?
I B O3 1_4555 . 1_5545 109.7(16) 109.7(16) 109.7(16) ?
I B O3 1_4555 . 2_5545 68.4(16) 68.4(16) 68.4(16) ?
I B O3 1_4555 . 3_5565 68.4(16) 68.4(16) 68.4(16) ?
I B O3 1_4555 . 4_5565 109.7(16) 109.7(16) 109.7(16) ?
I B O4 1_4555 . . 142(2) 142(2) 142(2) ?
I B O4 1_4555 . 2_5555 38(2) 38(2) 38(2) ?
I B O4 1_4555 . 3_5555 38(2) 38(2) 38(2) ?
I B O4 1_4555 . 4_5555 142(2) 142(2) 142(2) ?
I B I 1_5545 . . 180 180 180 ?
I B I 1_5545 . 1_6555 90.96(4) 90.96(4) 90.96(4) ?
I B O2 1_5545 . . 72.0(15) 72.0(15) 72.0(15) ?
I B O2 1_5545 . 2_5555 72.0(15) 72.0(15) 72.0(15) ?
I B O2 1_5545 . 3_5555 108.0(15) 108.0(15) 108.0(15) ?
I B O2 1_5545 . 4_5555 108.0(15) 108.0(15) 108.0(15) ?
I B O3 1_5545 . 3_5565 159.4(16) 159.4(16) 159.4(16) ?
I B O3 1_5545 . 4_5565 159.4(16) 159.4(16) 159.4(16) ?
I B O4 1_5545 . . 90 90 90 ?
I B O4 1_5545 . 2_5555 90 90 90 ?
I B O4 1_5545 . 3_5555 90 90 90 ?
I B O4 1_5545 . 4_5555 90 90 90 ?
I B I . . 1_6555 89.04(4) 89.04(4) 89.04(4) ?
I B O2 . . . 72.0(15) 72.0(15) 72.0(15) ?
I B O2 . . 2_5555 72.0(15) 72.0(15) 72.0(15) ?
I B O2 . . 3_5555 72.0(15) 72.0(15) 72.0(15) ?
I B O2 . . 4_5555 72.0(15) 72.0(15) 72.0(15) ?
I B O3 . . 1_5545 20.6(16) 20.6(16) 20.6(16) ?
I B O3 . . 2_5545 20.6(16) 20.6(16) 20.6(16) ?
I B O3 . . 3_5565 20.6(16) 20.6(16) 20.6(16) ?
I B O3 . . 4_5565 20.6(16) 20.6(16) 20.6(16) ?
I B O4 . . . 90 90 90 ?
I B O4 . . 2_5555 90 90 90 ?
I B O4 . . 3_5555 90 90 90 ?
I B O4 . . 4_5555 90 90 90 ?
I B I 1_5565 . 1_6555 90.96(4) 90.96(4) 90.96(4) ?
I B O2 1_5565 . . 108.0(15) 108.0(15) 108.0(15) ?
I B O2 1_5565 . 2_5555 108.0(15) 108.0(15) 108.0(15) ?
I B O2 1_5565 . 3_5555 72.0(15) 72.0(15) 72.0(15) ?
I B O2 1_5565 . 4_5555 72.0(15) 72.0(15) 72.0(15) ?
I B O3 1_5565 . 1_5545 159.4(16) 159.4(16) 159.4(16) ?
I B O3 1_5565 . 2_5545 159.4(16) 159.4(16) 159.4(16) ?
I B O4 1_5565 . . 90 90 90 ?
I B O4 1_5565 . 2_5555 90 90 90 ?
I B O4 1_5565 . 3_5555 90 90 90 ?
I B O4 1_5565 . 4_5555 90 90 90 ?
I B O2 1_6555 . . 89.70(3) 89.70(3) 89.70(3) ?
I B O2 1_6555 . 2_5555 89.70(3) 89.70(3) 89.70(3) ?
I B O2 1_6555 . 3_5555 89.70(3) 89.70(3) 89.70(3) ?
I B O2 1_6555 . 4_5555 89.70(3) 89.70(3) 89.70(3) ?
I B O3 1_6555 . 1_5545 68.4(16) 68.4(16) 68.4(16) ?
I B O3 1_6555 . 2_5545 109.7(16) 109.7(16) 109.7(16) ?
I B O3 1_6555 . 3_5565 109.7(16) 109.7(16) 109.7(16) ?
I B O3 1_6555 . 4_5565 68.4(16) 68.4(16) 68.4(16) ?
I B O4 1_6555 . . 38(2) 38(2) 38(2) ?
I B O4 1_6555 . 2_5555 142(2) 142(2) 142(2) ?
I B O4 1_6555 . 3_5555 142(2) 142(2) 142(2) ?
I B O4 1_6555 . 4_5555 38(2) 38(2) 38(2) ?
O2 B O2 . . 2_5555 144(2) 144(2) 144(2) ?
O2 B O2 . . 3_5555 36(2) 36(2) 36(2) ?
O2 B O2 . . 4_5555 180 180 180 ?
O2 B O3 . . 1_5545 73.2(14) 73.2(14) 73.2(14) ?
O2 B O3 . . 2_5545 73.2(14) 73.2(14) 73.2(14) ?
O2 B O3 . . 3_5565 106.8(14) 106.8(14) 106.8(14) ?
O2 B O3 . . 4_5565 106.8(14) 106.8(14) 106.8(14) ?
O2 B O4 . . . 54(2) 54(2) 54(2) ?
O2 B O4 . . 2_5555 126(2) 126(2) 126(2) ?
O2 B O4 . . 3_5555 54(2) 54(2) 54(2) ?
O2 B O4 . . 4_5555 126(2) 126(2) 126(2) ?
O2 B O2 2_5555 . 3_5555 180 180 180 ?
O2 B O2 2_5555 . 4_5555 36(2) 36(2) 36(2) ?
O2 B O3 2_5555 . 1_5545 73.2(14) 73.2(14) 73.2(14) ?
O2 B O3 2_5555 . 2_5545 73.2(14) 73.2(14) 73.2(14) ?
O2 B O3 2_5555 . 3_5565 106.8(14) 106.8(14) 106.8(14) ?
O2 B O3 2_5555 . 4_5565 106.8(14) 106.8(14) 106.8(14) ?
O2 B O4 2_5555 . . 126(2) 126(2) 126(2) ?
O2 B O4 2_5555 . 2_5555 54(2) 54(2) 54(2) ?
O2 B O4 2_5555 . 3_5555 126(2) 126(2) 126(2) ?
O2 B O4 2_5555 . 4_5555 54(2) 54(2) 54(2) ?
O2 B O2 3_5555 . 4_5555 144(2) 144(2) 144(2) ?
O2 B O3 3_5555 . 1_5545 106.8(14) 106.8(14) 106.8(14) ?
O2 B O3 3_5555 . 2_5545 106.8(14) 106.8(14) 106.8(14) ?
O2 B O3 3_5555 . 3_5565 73.2(14) 73.2(14) 73.2(14) ?
O2 B O3 3_5555 . 4_5565 73.2(14) 73.2(14) 73.2(14) ?
O2 B O4 3_5555 . . 54(2) 54(2) 54(2) ?
O2 B O4 3_5555 . 2_5555 126(2) 126(2) 126(2) ?
O2 B O4 3_5555 . 3_5555 54(2) 54(2) 54(2) ?
O2 B O4 3_5555 . 4_5555 126(2) 126(2) 126(2) ?
O2 B O3 4_5555 . 1_5545 106.8(14) 106.8(14) 106.8(14) ?
O2 B O3 4_5555 . 2_5545 106.8(14) 106.8(14) 106.8(14) ?
O2 B O3 4_5555 . 3_5565 73.2(14) 73.2(14) 73.2(14) ?
O2 B O3 4_5555 . 4_5565 73.2(14) 73.2(14) 73.2(14) ?
O2 B O4 4_5555 . . 126(2) 126(2) 126(2) ?
O2 B O4 4_5555 . 2_5555 54(2) 54(2) 54(2) ?
O2 B O4 4_5555 . 3_5555 126(2) 126(2) 126(2) ?
O2 B O4 4_5555 . 4_5555 54(2) 54(2) 54(2) ?
O3 B O3 1_5545 . 2_5545 41(2) 41(2) 41(2) ?
O3 B O4 1_5545 . . 74.0(13) 74.0(13) 74.0(13) ?
O3 B O4 1_5545 . 2_5555 106.0(13) 106.0(13) 106.0(13) ?
O3 B O4 1_5545 . 3_5555 106.0(13) 106.0(13) 106.0(13) ?
O3 B O4 1_5545 . 4_5555 74.0(13) 74.0(13) 74.0(13) ?
O3 B O4 2_5545 . . 106.0(13) 106.0(13) 106.0(13) ?
O3 B O4 2_5545 . 2_5555 74.0(13) 74.0(13) 74.0(13) ?
O3 B O4 2_5545 . 3_5555 74.0(13) 74.0(13) 74.0(13) ?
O3 B O4 2_5545 . 4_5555 106.0(13) 106.0(13) 106.0(13) ?
O3 B O3 3_5565 . 4_5565 41(2) 41(2) 41(2) ?
O3 B O4 3_5565 . . 106.0(13) 106.0(13) 106.0(13) ?
O3 B O4 3_5565 . 2_5555 74.0(13) 74.0(13) 74.0(13) ?
O3 B O4 3_5565 . 3_5555 74.0(13) 74.0(13) 74.0(13) ?
O3 B O4 3_5565 . 4_5555 106.0(13) 106.0(13) 106.0(13) ?
O3 B O4 4_5565 . . 74.0(13) 74.0(13) 74.0(13) ?
O3 B O4 4_5565 . 2_5555 106.0(13) 106.0(13) 106.0(13) ?
O3 B O4 4_5565 . 3_5555 106.0(13) 106.0(13) 106.0(13) ?
O3 B O4 4_5565 . 4_5555 74.0(13) 74.0(13) 74.0(13) ?
O4 B O4 . . 2_5555 180 180 180 ?
O4 B O4 . . 3_5555 103(3) 103(3) 103(3) ?
O4 B O4 . . 4_5555 77(3) 77(3) 77(3) ?
O4 B O4 2_5555 . 3_5555 77(3) 77(3) 77(3) ?
O4 B O4 2_5555 . 4_5555 103(3) 103(3) 103(3) ?
O4 B O4 3_5555 . 4_5555 180 180 180 ?
Bi O1 Bi 1_4555 . . 115.9(8) 113.0(5) 122.2(16) ?
Bi O1 Bi 1_4555 . 10_5545 106.5(4) 99.5(6) 112.2(4) ?
Bi O1 Bi 1_4555 . 10_5555 106.4(4) 99.5(6) 112.2(4) ?
Bi O1 Bi . . 10_5545 106.5(4) 99.5(6) 112.2(4) ?
Bi O1 Bi . . 10_5555 106.4(4) 99.5(6) 112.2(4) ?
Bi O1 Bi 10_5545 . 10_5555 115.1(8) 108.0(15) 120.2(15) ?
Bi O2 Bi 9_4445 . 2_5545 75.7(6) 75.2(6) 76.1(6) ?
Bi O2 Bi 9_4445 . 2_5555 69.7(5) 68.1(5) 70.3(5) ?
Bi O2 Bi 9_4445 . 2_6545 75.7(6) 75.2(6) 76.1(6) ?
Bi O2 Bi 9_4445 . 2_6555 69.7(5) 68.1(5) 70.3(5) ?
Bi O2 I 9_4445 . . 161(2) 161(2) 161(2) ?
Bi O2 B 9_4445 . . 155(2) 152(2) 159(2) ?
Bi O2 O2 9_4445 . 3_5555 83(3) 80(3) 87(3) ?
Bi O2 O3 9_4445 . 1_5545 146.0(17) 145.0(17) 147.5(17) ?
Bi O2 O3 9_4445 . 2_5545 146.0(17) 145.0(17) 147.5(17) ?
Bi O2 O3 9_4445 . 3_5565 117.3(13) 115.9(13) 119.2(13) ?
Bi O2 O3 9_4445 . 4_5565 117.3(13) 115.9(13) 119.2(13) ?
Bi O2 O4 9_4445 . . 109(3) 108(3) 110(3) ?
Bi O2 O4 9_4445 . 2_5555 148.8(13) 146.9(13) 150.5(13) ?
Bi O2 O4 9_4445 . 3_5555 109(3) 108(3) 110(3) ?
Bi O2 O4 9_4445 . 4_5555 148.8(13) 146.9(13) 150.5(13) ?
Bi O2 Bi 2_5545 . 2_5555 81.8(3) 80.7(3) 84.3(3) ?
Bi O2 Bi 2_5545 . 2_6545 98.5(11) 92.6(10) 101.3(11) ?
Bi O2 Bi 2_5545 . 2_6555 144.2(10) 141.6(10) 145.5(10) ?
Bi O2 I 2_5545 . . 116.5(11) 116.5(11) 116.5(11) ?
Bi O2 B 2_5545 . . 118.4(10) 117.5(10) 120.4(9) ?
Bi O2 O2 2_5545 . 3_5555 124.7(13) 122.4(13) 128.6(12) ?
Bi O2 O3 2_5545 . 1_5545 97.7(18) 96.3(18) 99.6(18) ?
Bi O2 O3 2_5545 . 2_5545 71.8(13) 71.2(13) 73.1(14) ?
Bi O2 O3 2_5545 . 3_5565 116.7(11) 116.3(11) 117.6(11) ?
Bi O2 O3 2_5545 . 4_5565 142.2(12) 141.9(12) 143.2(12) ?
Bi O2 O4 2_5545 . . 165(2) 161(2) 168(2) ?
Bi O2 O4 2_5545 . 2_5555 92.6(10) 91.9(10) 94.4(11) ?
Bi O2 O4 2_5545 . 3_5555 70.0(18) 68.9(19) 72.5(18) ?
Bi O2 O4 2_5545 . 4_5555 135.1(14) 133.1(14) 137.9(15) ?
Bi O2 Bi 2_5555 . 2_6545 144.2(10) 141.6(10) 145.5(10) ?
Bi O2 Bi 2_5555 . 2_6555 78.1(8) 73.7(7) 80.2(8) ?
Bi O2 I 2_5555 . . 95.8(14) 95.8(14) 95.8(14) ?
Bi O2 B 2_5555 . . 91.4(13) 89.7(13) 93.7(13) ?
Bi O2 O2 2_5555 . 3_5555 43.0(10) 40.3(10) 44.8(11) ?
Bi O2 O3 2_5555 . 1_5545 142.9(16) 141.7(16) 144.0(16) ?
Bi O2 O3 2_5555 . 2_5545 114.5(14) 113.8(14) 115.5(14) ?
Bi O2 O3 2_5555 . 3_5565 54.7(9) 54.1(9) 55.9(9) ?
Bi O2 O3 2_5555 . 4_5565 72.4(12) 71.3(12) 73.8(12) ?
Bi O2 O4 2_5555 . . 113(2) 110(2) 115(2) ?
Bi O2 O4 2_5555 . 2_5555 80.2(11) 79.2(10) 82.1(11) ?
Bi O2 O4 2_5555 . 3_5555 46(2) 45(2) 47(2) ?
Bi O2 O4 2_5555 . 4_5555 112.4(13) 110.1(12) 114.6(13) ?
Bi O2 Bi 2_6545 . 2_6555 81.8(3) 80.7(3) 84.3(3) ?
Bi O2 I 2_6545 . . 116.5(11) 116.5(11) 116.5(11) ?
Bi O2 B 2_6545 . . 118.4(10) 117.5(10) 120.4(9) ?
Bi O2 O2 2_6545 . 3_5555 124.7(13) 122.4(13) 128.6(12) ?
Bi O2 O3 2_6545 . 1_5545 71.8(13) 71.2(13) 73.1(14) ?
Bi O2 O3 2_6545 . 2_5545 97.7(18) 96.3(18) 99.6(18) ?
Bi O2 O3 2_6545 . 3_5565 142.2(12) 141.9(12) 143.2(12) ?
Bi O2 O3 2_6545 . 4_5565 116.7(11) 116.3(11) 117.6(11) ?
Bi O2 O4 2_6545 . . 70.0(18) 68.9(19) 72.5(18) ?
Bi O2 O4 2_6545 . 2_5555 135.1(14) 133.1(14) 137.9(15) ?
Bi O2 O4 2_6545 . 3_5555 165(2) 161(2) 168(2) ?
Bi O2 O4 2_6545 . 4_5555 92.6(10) 91.9(10) 94.4(11) ?
Bi O2 I 2_6555 . . 95.8(14) 95.8(14) 95.8(14) ?
Bi O2 B 2_6555 . . 91.4(13) 89.7(13) 93.7(13) ?
Bi O2 O2 2_6555 . 3_5555 43.0(10) 40.3(10) 44.8(11) ?
Bi O2 O3 2_6555 . 1_5545 114.5(14) 113.8(14) 115.5(14) ?
Bi O2 O3 2_6555 . 2_5545 142.9(16) 141.7(16) 144.0(16) ?
Bi O2 O3 2_6555 . 3_5565 72.4(12) 71.3(12) 73.8(12) ?
Bi O2 O3 2_6555 . 4_5565 54.7(9) 54.1(9) 55.9(9) ?
Bi O2 O4 2_6555 . . 46(2) 45(2) 47(2) ?
Bi O2 O4 2_6555 . 2_5555 112.4(13) 110.1(12) 114.6(13) ?
Bi O2 O4 2_6555 . 3_5555 113(2) 110(2) 115(2) ?
Bi O2 O4 2_6555 . 4_5555 80.2(11) 79.2(10) 82.1(11) ?
I O2 B . . . 2.78(14) 2.78(14) 2.78(14) ?
I O2 O3 . . 1_5545 51.8(13) 51.8(13) 51.8(13) ?
I O2 O3 . . 2_5545 51.8(13) 51.8(13) 51.8(13) ?
I O2 O4 . . . 63(3) 63(3) 63(3) ?
I O2 O4 . . 2_5555 26.2(11) 26.2(11) 26.2(11) ?
I O2 O4 . . 3_5555 63(3) 63(3) 63(3) ?
I O2 O4 . . 4_5555 26.2(11) 26.2(11) 26.2(11) ?
B O2 O2 . . 3_5555 72(3) 72(3) 72(3) ?
B O2 O3 . . 1_5545 54.3(13) 54.3(13) 54.3(13) ?
B O2 O3 . . 2_5545 54.3(13) 54.3(13) 54.3(13) ?
B O2 O3 . . 3_5565 37.1(10) 37.1(10) 37.1(10) ?
B O2 O3 . . 4_5565 37.1(10) 37.1(10) 37.1(10) ?
B O2 O4 . . . 63(3) 63(3) 63(3) ?
B O2 O4 . . 2_5555 26.8(11) 26.8(11) 26.8(11) ?
B O2 O4 . . 3_5555 63(3) 63(3) 63(3) ?
B O2 O4 . . 4_5555 26.8(11) 26.8(11) 26.8(11) ?
O2 O2 O3 3_5555 . 1_5545 123(3) 123(3) 123(3) ?
O2 O2 O3 3_5555 . 2_5545 123(3) 123(3) 123(3) ?
O2 O2 O3 3_5555 . 3_5565 39(2) 39(2) 39(2) ?
O2 O2 O3 3_5555 . 4_5565 39(2) 39(2) 39(2) ?
O2 O2 O4 3_5555 . . 70(2) 70(2) 70(2) ?
O2 O2 O4 3_5555 . 2_5555 80(2) 80(2) 80(2) ?
O2 O2 O4 3_5555 . 3_5555 70(2) 70(2) 70(2) ?
O2 O2 O4 3_5555 . 4_5555 80(2) 80(2) 80(2) ?
O3 O2 O3 1_5545 . 2_5545 35(2) 35(2) 35(2) ?
O3 O2 O4 1_5545 . . 69(2) 69(2) 69(2) ?
O3 O2 O4 1_5545 . 2_5555 61.9(16) 61.9(16) 61.9(16) ?
O3 O2 O4 1_5545 . 3_5555 99(3) 99(3) 99(3) ?
O3 O2 O4 1_5545 . 4_5555 42.9(12) 42.9(12) 42.9(12) ?
O3 O2 O4 2_5545 . . 99(3) 99(3) 99(3) ?
O3 O2 O4 2_5545 . 2_5555 42.9(12) 42.9(12) 42.9(12) ?
O3 O2 O4 2_5545 . 3_5555 69(2) 69(2) 69(2) ?
O3 O2 O4 2_5545 . 4_5555 61.9(16) 61.9(16) 61.9(16) ?
O3 O2 O3 3_5565 . 4_5565 25.7(15) 25.7(15) 25.7(15) ?
O3 O2 O4 3_5565 . . 73(2) 73(2) 73(2) ?
O3 O2 O4 3_5565 . 2_5555 41.5(8) 41.5(8) 41.5(8) ?
O3 O2 O4 3_5565 . 3_5555 47(2) 47(2) 47(2) ?
O3 O2 O4 3_5565 . 4_5555 56.3(12) 56.3(12) 56.3(12) ?
O3 O2 O4 4_5565 . . 47(2) 47(2) 47(2) ?
O3 O2 O4 4_5565 . 2_5555 56.3(12) 56.3(12) 56.3(12) ?
O3 O2 O4 4_5565 . 3_5555 73(2) 73(2) 73(2) ?
O3 O2 O4 4_5565 . 4_5555 41.5(8) 41.5(8) 41.5(8) ?
O4 O2 O4 . . 2_5555 89(3) 89(3) 89(3) ?
O4 O2 O4 . . 3_5555 119(4) 119(4) 119(4) ?
O4 O2 O4 . . 4_5555 40(3) 40(3) 40(3) ?
O4 O2 O4 2_5555 . 3_5555 40(3) 40(3) 40(3) ?
O4 O2 O4 2_5555 . 4_5555 51.9(17) 51.9(17) 51.9(17) ?
O4 O2 O4 3_5555 . 4_5555 89(3) 89(3) 89(3) ?
Bi O3 Bi 1_4555 . . 83.5(3) 82.0(4) 84.2(3) ?
Bi O3 Bi 1_4555 . 2_5555 77.0(8) 76.5(8) 78.1(8) ?
Bi O3 Bi 1_4555 . 2_6555 148.2(11) 144.0(11) 152.5(11) ?
Bi O3 B 1_4555 . 1_5565 86.7(14) 84.6(14) 88.8(14) ?
Bi O3 O2 1_4555 . 1_5565 112.6(18) 111.7(18) 113.9(18) ?
Bi O3 O2 1_4555 . 2_5565 53.4(12) 51.5(12) 55.1(13) ?
Bi O3 O2 1_4555 . 3_5565 111.7(14) 110.1(14) 113.5(14) ?
Bi O3 O2 1_4555 . 4_5565 69.0(9) 66.8(9) 70.9(9) ?
Bi O3 O3 1_4555 . 2_5555 41.4(8) 41.0(8) 42.1(9) ?
Bi O3 O3 1_4555 . 3_5565 53.4(11) 51.6(10) 55.4(11) ?
Bi O3 O3 1_4555 . 4_5565 77.3(16) 75.3(16) 79.4(17) ?
Bi O3 O4 1_4555 . 1_5565 138(2) 136(2) 141(2) ?
Bi O3 O4 1_4555 . 2_5565 50.4(11) 48.3(10) 52.5(11) ?
Bi O3 O4 1_4555 . 3_5565 80.7(17) 79.5(17) 82.3(17) ?
Bi O3 O4 1_4555 . 4_5565 96.7(19) 94.8(19) 98.2(19) ?
Bi O3 Bi . . 2_5555 148.2(11) 144.0(11) 152.5(11) ?
Bi O3 Bi . . 2_6555 101.2(12) 99.8(12) 103.4(13) ?
Bi O3 B . . 1_5565 117.3(10) 114.6(10) 119.6(10) ?
Bi O3 O2 . . 1_5565 158(2) 156(2) 160(2) ?
Bi O3 O2 . . 2_5565 73.1(9) 71.2(9) 74.7(10) ?
Bi O3 O2 . . 3_5565 142.5(15) 139.9(15) 145.0(15) ?
Bi O3 O2 . . 4_5565 83.6(7) 81.2(7) 85.6(7) ?
Bi O3 O3 . . 2_5555 124.9(11) 124.1(12) 125.2(10) ?
Bi O3 O3 . . 3_5565 95.0(12) 92.7(12) 97.2(11) ?
Bi O3 O3 . . 4_5565 74.2(13) 71.7(13) 76.8(13) ?
Bi O3 O4 . . 1_5565 114(2) 112(2) 116(2) ?
Bi O3 O4 . . 2_5565 105.7(14) 104.0(14) 107.0(14) ?
Bi O3 O4 . . 3_5565 149.7(16) 147.5(16) 151.3(16) ?
Bi O3 O4 . . 4_5565 68.2(16) 65.4(16) 70.7(16) ?
Bi O3 Bi 2_5555 . 2_6555 83.5(3) 82.0(4) 84.2(3) ?
Bi O3 B 2_5555 . 1_5565 86.7(14) 84.6(14) 88.8(14) ?
Bi O3 O2 2_5555 . 1_5565 53.4(12) 51.5(12) 55.1(13) ?
Bi O3 O2 2_5555 . 2_5565 112.6(18) 111.7(18) 113.9(18) ?
Bi O3 O2 2_5555 . 3_5565 69.0(9) 66.8(9) 70.9(9) ?
Bi O3 O2 2_5555 . 4_5565 111.7(14) 110.1(14) 113.5(14) ?
Bi O3 O3 2_5555 . 2_5555 41.4(8) 41.0(8) 42.1(9) ?
Bi O3 O3 2_5555 . 3_5565 53.4(11) 51.6(10) 55.4(11) ?
Bi O3 O3 2_5555 . 4_5565 77.3(16) 75.3(16) 79.4(17) ?
Bi O3 O4 2_5555 . 1_5565 96.7(19) 94.8(19) 98.2(19) ?
Bi O3 O4 2_5555 . 2_5565 80.7(17) 79.5(17) 82.3(17) ?
Bi O3 O4 2_5555 . 3_5565 50.4(11) 48.3(10) 52.5(11) ?
Bi O3 O4 2_5555 . 4_5565 138(2) 136(2) 141(2) ?
Bi O3 B 2_6555 . 1_5565 117.3(10) 114.6(10) 119.6(10) ?
Bi O3 O2 2_6555 . 1_5565 73.1(9) 71.2(9) 74.7(10) ?
Bi O3 O2 2_6555 . 2_5565 158(2) 156(2) 160(2) ?
Bi O3 O2 2_6555 . 3_5565 83.6(7) 81.2(7) 85.6(7) ?
Bi O3 O2 2_6555 . 4_5565 142.5(15) 139.9(15) 145.0(15) ?
Bi O3 O3 2_6555 . 2_5555 124.9(11) 124.1(12) 125.2(10) ?
Bi O3 O3 2_6555 . 3_5565 95.0(12) 92.7(12) 97.2(11) ?
Bi O3 O3 2_6555 . 4_5565 74.2(13) 71.7(13) 76.8(13) ?
Bi O3 O4 2_6555 . 1_5565 68.2(16) 65.4(16) 70.7(16) ?
Bi O3 O4 2_6555 . 2_5565 149.7(16) 147.5(16) 151.3(16) ?
Bi O3 O4 2_6555 . 3_5565 105.7(14) 104.0(14) 107.0(14) ?
Bi O3 O4 2_6555 . 4_5565 114(2) 112(2) 116(2) ?
B O3 O2 1_5565 . 1_5565 52.4(14) 52.4(14) 52.4(14) ?
B O3 O2 1_5565 . 2_5565 52.4(14) 52.4(14) 52.4(14) ?
B O3 O2 1_5565 . 3_5565 36.1(9) 36.1(9) 36.1(9) ?
B O3 O2 1_5565 . 4_5565 36.1(9) 36.1(9) 36.1(9) ?
B O3 O3 1_5565 . 2_5555 69(3) 69(3) 69(3) ?
B O3 O3 1_5565 . 3_5565 126(3) 126(3) 126(3) ?
B O3 O3 1_5565 . 4_5565 159(3) 159(3) 159(3) ?
B O3 O4 1_5565 . 1_5565 51.8(17) 51.8(17) 51.8(17) ?
B O3 O4 1_5565 . 2_5565 36.3(12) 36.3(12) 36.3(12) ?
B O3 O4 1_5565 . 3_5565 36.3(12) 36.3(12) 36.3(12) ?
B O3 O4 1_5565 . 4_5565 51.8(17) 51.8(17) 51.8(17) ?
O2 O3 O2 1_5565 . 2_5565 104(2) 104(2) 104(2) ?
O2 O3 O2 1_5565 . 3_5565 18.7(14) 18.7(14) 18.7(14) ?
O2 O3 O2 1_5565 . 4_5565 88.5(19) 88.5(19) 88.5(19) ?
O2 O3 O3 1_5565 . 2_5555 72.6(18) 72.6(18) 72.6(18) ?
O2 O3 O3 1_5565 . 3_5565 106.6(19) 106.6(19) 106.6(19) ?
O2 O3 O3 1_5565 . 4_5565 122.6(17) 122.6(17) 122.6(17) ?
O2 O3 O4 1_5565 . 1_5565 43.7(19) 43.7(19) 43.7(19) ?
O2 O3 O4 1_5565 . 2_5565 77(2) 77(2) 77(2) ?
O2 O3 O4 1_5565 . 3_5565 33.6(16) 33.6(16) 33.6(16) ?
O2 O3 O4 1_5565 . 4_5565 94(2) 94(2) 94(2) ?
O2 O3 O2 2_5565 . 3_5565 88.5(19) 88.5(19) 88.5(19) ?
O2 O3 O2 2_5565 . 4_5565 18.7(14) 18.7(14) 18.7(14) ?
O2 O3 O3 2_5565 . 2_5555 72.6(18) 72.6(18) 72.6(18) ?
O2 O3 O3 2_5565 . 3_5565 106.6(19) 106.6(19) 106.6(19) ?
O2 O3 O3 2_5565 . 4_5565 122.6(17) 122.6(17) 122.6(17) ?
O2 O3 O4 2_5565 . 1_5565 94(2) 94(2) 94(2) ?
O2 O3 O4 2_5565 . 2_5565 33.6(16) 33.6(16) 33.6(16) ?
O2 O3 O4 2_5565 . 3_5565 77(2) 77(2) 77(2) ?
O2 O3 O4 2_5565 . 4_5565 43.7(19) 43.7(19) 43.7(19) ?
O2 O3 O2 3_5565 . 4_5565 71.6(14) 71.6(14) 71.6(14) ?
O2 O3 O3 3_5565 . 2_5555 77(2) 77(2) 77(2) ?
O2 O3 O3 3_5565 . 3_5565 122.0(19) 122.0(19) 122.0(19) ?
O2 O3 O3 3_5565 . 4_5565 141.3(13) 141.3(13) 141.3(13) ?
O2 O3 O4 3_5565 . 1_5565 33.2(17) 33.2(17) 33.2(17) ?
O2 O3 O4 3_5565 . 2_5565 66.6(16) 66.6(16) 66.6(16) ?
O2 O3 O4 3_5565 . 3_5565 32.3(12) 32.3(12) 32.3(12) ?
O2 O3 O4 3_5565 . 4_5565 76(2) 76(2) 76(2) ?
O2 O3 O3 4_5565 . 2_5555 77(2) 77(2) 77(2) ?
O2 O3 O3 4_5565 . 3_5565 122.0(19) 122.0(19) 122.0(19) ?
O2 O3 O3 4_5565 . 4_5565 141.3(13) 141.3(13) 141.3(13) ?
O2 O3 O4 4_5565 . 1_5565 76(2) 76(2) 76(2) ?
O2 O3 O4 4_5565 . 2_5565 32.3(12) 32.3(12) 32.3(12) ?
O2 O3 O4 4_5565 . 3_5565 66.6(16) 66.6(16) 66.6(16) ?
O2 O3 O4 4_5565 . 4_5565 33.2(17) 33.2(17) 33.2(17) ?
O3 O3 O3 2_5555 . 3_5565 57(3) 57(3) 57(3) ?
O3 O3 O3 2_5555 . 4_5565 90(3) 90(3) 90(3) ?
O3 O3 O4 2_5555 . 1_5565 110(3) 110(3) 110(3) ?
O3 O3 O4 2_5555 . 2_5565 45(2) 45(2) 45(2) ?
O3 O3 O4 2_5555 . 3_5565 45(2) 45(2) 45(2) ?
O3 O3 O4 2_5555 . 4_5565 110(3) 110(3) 110(3) ?
O3 O3 O3 3_5565 . 4_5565 33(2) 33(2) 33(2) ?
O3 O3 O4 3_5565 . 1_5565 148(2) 148(2) 148(2) ?
O3 O3 O4 3_5565 . 2_5565 96(2) 96(2) 96(2) ?
O3 O3 O4 3_5565 . 3_5565 96(2) 96(2) 96(2) ?
O3 O3 O4 3_5565 . 4_5565 148(2) 148(2) 148(2) ?
O3 O3 O4 4_5565 . 1_5565 142(2) 142(2) 142(2) ?
O3 O3 O4 4_5565 . 2_5565 127(2) 127(2) 127(2) ?
O3 O3 O4 4_5565 . 3_5565 127(2) 127(2) 127(2) ?
O3 O3 O4 4_5565 . 4_5565 142(2) 142(2) 142(2) ?
O4 O3 O4 1_5565 . 2_5565 88(2) 88(2) 88(2) ?
O4 O3 O4 1_5565 . 3_5565 65(2) 65(2) 65(2) ?
O4 O3 O4 1_5565 . 4_5565 61(3) 61(3) 61(3) ?
O4 O3 O4 2_5565 . 3_5565 45(2) 45(2) 45(2) ?
O4 O3 O4 2_5565 . 4_5565 65(2) 65(2) 65(2) ?
O4 O3 O4 3_5565 . 4_5565 88(2) 88(2) 88(2) ?
Bi O4 Bi 1_5545 . . 63.9(9) 63.2(9) 65.2(9) ?
Bi O4 Bi 1_5545 . 2_5545 102.5(7) 97.8(6) 105.8(7) ?
Bi O4 Bi 1_5545 . 2_5555 138.4(14) 137.5(14) 140.1(14) ?
Bi O4 Bi 1_5545 . 2_6545 84.5(8) 79.1(7) 89.3(8) ?
Bi O4 Bi 1_5545 . 2_6555 135.5(16) 133.6(16) 138.9(16) ?
Bi O4 I 1_5545 . . 72.9(19) 72.0(18) 74(2) ?
Bi O4 B 1_5545 . . 73.1(19) 72.2(19) 73.8(19) ?
Bi O4 O2 1_5545 . . 110(2) 108(2) 111(2) ?
Bi O4 O2 1_5545 . 2_5555 46.7(9) 45.6(9) 47.8(9) ?
Bi O4 O2 1_5545 . 3_5555 135(3) 135(3) 135(3) ?
Bi O4 O2 1_5545 . 4_5555 59.8(12) 58.3(12) 61.8(12) ?
Bi O4 O3 1_5545 . 1_5545 41.7(17) 40.6(17) 42.9(17) ?
Bi O4 O3 1_5545 . 2_5545 63.6(13) 62.9(12) 64.4(13) ?
Bi O4 O3 1_5545 . 3_5565 100.1(18) 99.7(18) 101.1(18) ?
Bi O4 O3 1_5545 . 4_5565 94(2) 94(2) 95(2) ?
Bi O4 O4 1_5545 . 3_5555 105(2) 105(2) 106(2) ?
Bi O4 O4 1_5545 . 3_6555 74.5(19) 74.3(19) 75.0(18) ?
Bi O4 O4 1_5545 . 4_5555 36.3(10) 34.3(10) 39.0(9) ?
Bi O4 Bi . . 2_5545 138.4(14) 137.5(14) 140.1(14) ?
Bi O4 Bi . . 2_5555 102.5(7) 97.8(6) 105.8(7) ?
Bi O4 Bi . . 2_6545 135.5(16) 133.6(16) 138.9(16) ?
Bi O4 Bi . . 2_6555 84.5(8) 79.1(7) 89.3(8) ?
Bi O4 I . . . 72.9(19) 72.0(18) 74(2) ?
Bi O4 B . . . 73.1(19) 72.2(19) 73.8(19) ?
Bi O4 O2 . . . 135(3) 135(3) 135(3) ?
Bi O4 O2 . . 2_5555 59.8(12) 58.3(12) 61.8(12) ?
Bi O4 O2 . . 3_5555 110(2) 108(2) 111(2) ?
Bi O4 O2 . . 4_5555 46.7(9) 45.6(9) 47.8(9) ?
Bi O4 O3 . . 1_5545 94(2) 94(2) 95(2) ?
Bi O4 O3 . . 2_5545 100.1(18) 99.7(18) 101.1(18) ?
Bi O4 O3 . . 3_5565 63.6(13) 62.9(12) 64.4(13) ?
Bi O4 O3 . . 4_5565 41.7(17) 40.6(17) 42.9(17) ?
Bi O4 O4 . . 3_5555 105(2) 105(2) 106(2) ?
Bi O4 O4 . . 3_6555 74.5(19) 74.3(19) 75.0(18) ?
Bi O4 O4 . . 4_5555 36.3(10) 34.3(10) 39.0(9) ?
Bi O4 Bi 2_5545 . 2_5555 60.4(7) 59.5(7) 62.1(7) ?
Bi O4 Bi 2_5545 . 2_6545 75.5(8) 72.0(7) 77.1(9) ?
Bi O4 Bi 2_5545 . 2_6555 121.4(17) 120.4(16) 121.9(18) ?
Bi O4 I 2_5545 . . 66.2(16) 64.2(15) 68.1(16) ?
Bi O4 B 2_5545 . . 65.5(16) 64.9(16) 66.6(16) ?
Bi O4 O2 2_5545 . . 10.2(16) 8.5(16) 13.1(16) ?
Bi O4 O2 2_5545 . 2_5555 81.9(12) 81.1(11) 83.6(12) ?
Bi O4 O2 2_5545 . 3_5555 50.2(19) 48.5(19) 53.0(19) ?
Bi O4 O2 2_5545 . 4_5555 92.0(13) 91.5(13) 93.3(13) ?
Bi O4 O3 2_5545 . 1_5545 58.6(16) 57.7(16) 59.9(16) ?
Bi O4 O3 2_5545 . 2_5545 41.7(9) 41.4(9) 42.5(9) ?
Bi O4 O3 2_5545 . 3_5565 81.6(15) 81.3(15) 82.2(15) ?
Bi O4 O3 2_5545 . 4_5565 106(2) 106(2) 107(2) ?
Bi O4 O4 2_5545 . 3_5555 37.2(10) 36.3(11) 39.3(10) ?
Bi O4 O4 2_5545 . 3_6555 142.8(16) 140.7(14) 143.7(17) ?
Bi O4 O4 2_5545 . 4_5555 110(2) 109(2) 111(2) ?
Bi O4 Bi 2_5555 . 2_6545 121.4(17) 120.4(16) 121.9(18) ?
Bi O4 Bi 2_5555 . 2_6555 75.5(8) 72.0(7) 77.1(9) ?
Bi O4 I 2_5555 . . 66.2(16) 64.2(15) 68.1(16) ?
Bi O4 B 2_5555 . . 65.5(16) 64.9(16) 66.6(16) ?
Bi O4 O2 2_5555 . . 50.2(19) 48.5(19) 53.0(19) ?
Bi O4 O2 2_5555 . 2_5555 92.0(13) 91.5(13) 93.3(13) ?
Bi O4 O2 2_5555 . 3_5555 10.2(16) 8.5(16) 13.1(16) ?
Bi O4 O2 2_5555 . 4_5555 81.9(12) 81.1(11) 83.6(12) ?
Bi O4 O3 2_5555 . 1_5545 106(2) 106(2) 107(2) ?
Bi O4 O3 2_5555 . 2_5545 81.6(15) 81.3(15) 82.2(15) ?
Bi O4 O3 2_5555 . 3_5565 41.7(9) 41.4(9) 42.5(9) ?
Bi O4 O3 2_5555 . 4_5565 58.6(16) 57.7(16) 59.9(16) ?
Bi O4 O4 2_5555 . 3_5555 37.2(10) 36.3(11) 39.3(10) ?
Bi O4 O4 2_5555 . 3_6555 142.8(16) 140.7(14) 143.7(17) ?
Bi O4 O4 2_5555 . 4_5555 110(2) 109(2) 111(2) ?
Bi O4 Bi 2_6545 . 2_6555 100.1(18) 99.8(18) 101.0(18) ?
Bi O4 I 2_6545 . . 127.8(10) 122.4(8) 133.1(11) ?
Bi O4 B 2_6545 . . 128.4(10) 125.2(9) 130.6(10) ?
Bi O4 O2 2_6545 . . 83(2) 82(2) 84(2) ?
Bi O4 O2 2_6545 . 2_5555 119.2(11) 115.8(11) 122.2(11) ?
Bi O4 O2 2_6545 . 3_5555 114(3) 112(3) 115(3) ?
Bi O4 O2 2_6545 . 4_5555 139.0(15) 135.6(15) 141.9(15) ?
Bi O4 O3 2_6545 . 1_5545 75.7(10) 74.3(10) 77.7(10) ?
Bi O4 O3 2_6545 . 2_5545 89.0(8) 87.6(8) 90.9(8) ?
Bi O4 O3 2_6545 . 3_5565 158(2) 157(2) 158(2) ?
Bi O4 O3 2_6545 . 4_5565 176(3) 175(2) 177(3) ?
Bi O4 O4 2_6545 . 3_5555 112.7(17) 111.3(15) 113.4(18) ?
Bi O4 O4 2_6545 . 3_6555 67.3(14) 66.6(15) 68.7(14) ?
Bi O4 O4 2_6545 . 4_5555 120.8(16) 118.1(15) 123.7(16) ?
Bi O4 I 2_6555 . . 127.8(10) 122.4(8) 133.1(11) ?
Bi O4 B 2_6555 . . 128.4(10) 125.2(9) 130.6(10) ?
Bi O4 O2 2_6555 . . 114(3) 112(3) 115(3) ?
Bi O4 O2 2_6555 . 2_5555 139.0(15) 135.6(15) 141.9(15) ?
Bi O4 O2 2_6555 . 3_5555 83(2) 82(2) 84(2) ?
Bi O4 O2 2_6555 . 4_5555 119.2(11) 115.8(11) 122.2(11) ?
Bi O4 O3 2_6555 . 1_5545 176(3) 175(2) 177(3) ?
Bi O4 O3 2_6555 . 2_5545 158(2) 157(2) 158(2) ?
Bi O4 O3 2_6555 . 3_5565 89.0(8) 87.6(8) 90.9(8) ?
Bi O4 O3 2_6555 . 4_5565 75.7(10) 74.3(10) 77.7(10) ?
Bi O4 O4 2_6555 . 3_5555 112.7(17) 111.3(15) 113.4(18) ?
Bi O4 O4 2_6555 . 3_6555 67.3(14) 66.6(15) 68.7(14) ?
Bi O4 O4 2_6555 . 4_5555 120.8(16) 118.1(15) 123.7(16) ?
I O4 B . . . 2.90(17) 2.90(17) 2.90(17) ?
I O4 O2 . . . 62(2) 62(2) 62(2) ?
I O4 O2 . . 2_5555 26.0(13) 26.0(13) 26.0(13) ?
I O4 O2 . . 3_5555 62(2) 62(2) 62(2) ?
I O4 O2 . . 4_5555 26.0(13) 26.0(13) 26.0(13) ?
I O4 O3 . . 1_5545 51.4(18) 51.4(18) 51.4(18) ?
I O4 O3 . . 2_5545 34.9(10) 34.9(10) 34.9(10) ?
I O4 O3 . . 3_5565 34.9(10) 34.9(10) 34.9(10) ?
I O4 O3 . . 4_5565 51.4(18) 51.4(18) 51.4(18) ?
I O4 O4 . . 3_5555 39(2) 39(2) 39(2) ?
I O4 O4 . . 3_6555 141(4) 141(4) 141(4) ?
I O4 O4 . . 4_5555 52(2) 52(2) 52(2) ?
B O4 O2 . . . 64(2) 64(2) 64(2) ?
B O4 O2 . . 2_5555 27.0(13) 27.0(13) 27.0(13) ?
B O4 O2 . . 3_5555 64(2) 64(2) 64(2) ?
B O4 O2 . . 4_5555 27.0(13) 27.0(13) 27.0(13) ?
B O4 O3 . . 1_5545 54.2(19) 54.2(19) 54.2(19) ?
B O4 O3 . . 2_5545 37.7(11) 37.7(11) 37.7(11) ?
B O4 O3 . . 3_5565 37.7(11) 37.7(11) 37.7(11) ?
B O4 O3 . . 4_5565 54.2(19) 54.2(19) 54.2(19) ?
B O4 O4 . . 3_5555 38(2) 38(2) 38(2) ?
B O4 O4 . . 3_6555 142(4) 142(4) 142(4) ?
B O4 O4 . . 4_5555 52(2) 52(2) 52(2) ?
O2 O4 O2 . . 2_5555 84(3) 84(3) 84(3) ?
O2 O4 O2 . . 3_5555 40(3) 40(3) 40(3) ?
O2 O4 O2 . . 4_5555 91(3) 91(3) 91(3) ?
O2 O4 O3 . . 1_5545 68(2) 68(2) 68(2) ?
O2 O4 O3 . . 2_5545 48(2) 48(2) 48(2) ?
O2 O4 O3 . . 3_5565 75(3) 75(3) 75(3) ?
O2 O4 O3 . . 4_5565 99(3) 99(3) 99(3) ?
O2 O4 O4 . . 3_5555 30(2) 30(2) 30(2) ?
O2 O4 O4 . . 3_6555 150(3) 150(3) 150(3) ?
O2 O4 O4 . . 4_5555 112(4) 112(4) 112(4) ?
O2 O4 O2 2_5555 . 3_5555 91(3) 91(3) 91(3) ?
O2 O4 O2 2_5555 . 4_5555 20.0(13) 20.0(13) 20.0(13) ?
O2 O4 O3 2_5555 . 1_5545 42.7(17) 42.7(17) 42.7(17) ?
O2 O4 O3 2_5555 . 2_5545 41.4(11) 41.4(11) 41.4(11) ?
O2 O4 O3 2_5555 . 3_5565 57.1(15) 57.1(15) 57.1(15) ?
O2 O4 O3 2_5555 . 4_5565 63(2) 63(2) 63(2) ?
O2 O4 O4 2_5555 . 3_5555 64(2) 64(2) 64(2) ?
O2 O4 O4 2_5555 . 3_6555 116(3) 116(3) 116(3) ?
O2 O4 O4 2_5555 . 4_5555 28.1(17) 28.1(17) 28.1(17) ?
O2 O4 O2 3_5555 . 4_5555 84(3) 84(3) 84(3) ?
O2 O4 O3 3_5555 . 1_5545 99(3) 99(3) 99(3) ?
O2 O4 O3 3_5555 . 2_5545 75(3) 75(3) 75(3) ?
O2 O4 O3 3_5555 . 3_5565 48(2) 48(2) 48(2) ?
O2 O4 O3 3_5555 . 4_5565 68(2) 68(2) 68(2) ?
O2 O4 O4 3_5555 . 3_5555 30(2) 30(2) 30(2) ?
O2 O4 O4 3_5555 . 3_6555 150(3) 150(3) 150(3) ?
O2 O4 O4 3_5555 . 4_5555 112(4) 112(4) 112(4) ?
O2 O4 O3 4_5555 . 1_5545 63(2) 63(2) 63(2) ?
O2 O4 O3 4_5555 . 2_5545 57.1(15) 57.1(15) 57.1(15) ?
O2 O4 O3 4_5555 . 3_5565 41.4(11) 41.4(11) 41.4(11) ?
O2 O4 O3 4_5555 . 4_5565 42.7(17) 42.7(17) 42.7(17) ?
O2 O4 O4 4_5555 . 3_5555 64(2) 64(2) 64(2) ?
O2 O4 O4 4_5555 . 3_6555 116(3) 116(3) 116(3) ?
O2 O4 O4 4_5555 . 4_5555 28.1(17) 28.1(17) 28.1(17) ?
O3 O4 O3 1_5545 . 2_5545 24.9(17) 24.9(17) 24.9(17) ?
O3 O4 O4 1_5545 . 3_5555 70(2) 70(2) 70(2) ?
O3 O4 O4 1_5545 . 3_6555 110(3) 110(3) 110(3) ?
O3 O4 O4 1_5545 . 4_5555 59.5(19) 59.5(19) 59.5(19) ?
O3 O4 O4 2_5545 . 3_5555 45.0(15) 45.0(15) 45.0(15) ?
O3 O4 O4 2_5545 . 3_6555 135(2) 135(2) 135(2) ?
O3 O4 O4 2_5545 . 4_5555 68(2) 68(2) 68(2) ?
O3 O4 O3 3_5565 . 4_5565 24.9(17) 24.9(17) 24.9(17) ?
O3 O4 O4 3_5565 . 3_5555 45.0(15) 45.0(15) 45.0(15) ?
O3 O4 O4 3_5565 . 3_6555 135(2) 135(2) 135(2) ?
O3 O4 O4 3_5565 . 4_5555 68(2) 68(2) 68(2) ?
O3 O4 O4 4_5565 . 3_5555 70(2) 70(2) 70(2) ?
O3 O4 O4 4_5565 . 3_6555 110(3) 110(3) 110(3) ?
O3 O4 O4 4_5565 . 4_5555 59.5(19) 59.5(19) 59.5(19) ?
O4 O4 O4 3_5555 . 3_6555 180 180 180 ?
O4 O4 O4 3_5555 . 4_5555 90(3) 90(3) 90(3) ?
O4 O4 O4 3_6555 . 4_5555 90(3) 90(3) 90(3) ?
loop_
_geom_bond_atom_site_label_1
_geom_bond_atom_site_label_2
_geom_bond_site_ssg_symmetry_1
_geom_bond_site_ssg_symmetry_2
_geom_bond_distance
_geom_bond_distance_min
_geom_bond_distance_max
_geom_bond_publ_flag
Bi Bi . 1_4545 5.61(3) 5.43(4) 5.83(4) ?
Bi Bi . 1_4555 3.96(5) 3.96(5) 3.96(5) ?
Bi Bi . 1_4565 5.61(3) 5.43(4) 5.83(4) ?
Bi Bi . 1_5545 3.973(2) 3.715(4) 4.274(4) ?
Bi Bi . 1_5565 3.970(2) 3.715(4) 4.274(4) ?
Bi Bi . 1_6545 5.61(3) 5.43(4) 5.83(4) ?
Bi Bi . 1_6555 3.96(5) 3.96(5) 3.96(5) ?
Bi Bi . 1_6565 5.61(3) 5.43(4) 5.83(4) ?
Bi Bi . 2_5555 5.80(3) 5.66(3) 5.94(3) ?
Bi Bi . 2_6545 5.811(2) 5.534(3) 6.118(3) ?
Bi Bi . 2_6555 4.241(2) 4.052(4) 4.432(4) ?
Bi Bi . 2_6565 5.808(2) 5.534(3) 6.118(3) ?
Bi Bi . 2_7555 5.80(3) 5.66(3) 5.94(3) ?
Bi Bi . 10_5545 3.751(13) 3.724(13) 3.799(13) ?
Bi Bi . 10_5555 3.751(13) 3.724(13) 3.799(13) ?
Bi Bi . 10_6545 3.751(13) 3.724(13) 3.799(13) ?
Bi Bi . 10_6555 3.751(13) 3.724(13) 3.799(13) ?
Bi I . . 3.592(13) 3.503(14) 3.644(14) ?
Bi I . 1_5565 3.591(13) 3.509(14) 3.644(14) ?
Bi I . 1_6555 3.592(13) 3.503(14) 3.644(14) ?
Bi I . 1_6565 3.591(13) 3.509(14) 3.644(14) ?
Bi I . 9_5555 4.5472(15) 4.510(3) 4.610(3) ?
Bi B . . 3.441(14) 3.394(14) 3.553(14) ?
Bi B . 1_5565 3.439(14) 3.394(14) 3.547(14) ?
Bi B . 1_6555 3.441(14) 3.394(14) 3.553(14) ?
Bi B . 1_6565 3.439(14) 3.394(14) 3.547(14) ?
Bi O1 . . 2.34(2) 2.26(3) 2.37(3) ?
Bi O1 . 1_6555 2.34(2) 2.26(3) 2.37(3) ?
Bi O1 . 10_5545 2.353(17) 2.13(2) 2.57(2) ?
Bi O1 . 10_5555 2.349(17) 2.13(2) 2.57(2) ?
Bi O2 . 9_5555 3.44(3) 3.37(3) 3.48(3) ?
Bi O2 . 2_5555 3.15(3) 3.07(3) 3.30(3) ?
Bi O2 . 2_5565 2.61(3) 2.56(3) 2.73(3) ?
Bi O2 . 2_6555 3.15(3) 3.07(3) 3.30(3) ?
Bi O2 . 2_6565 2.61(3) 2.56(3) 2.73(3) ?
Bi O2 . 11_5555 3.44(3) 3.36(3) 3.48(3) ?
Bi O2 . 4_5555 2.61(3) 2.56(3) 2.74(3) ?
Bi O2 . 4_5565 3.15(3) 3.07(3) 3.30(3) ?
Bi O2 . 4_6555 2.61(3) 2.56(3) 2.74(3) ?
Bi O2 . 4_6565 3.15(3) 3.07(3) 3.30(3) ?
Bi O3 . . 2.63(3) 2.61(3) 2.68(3) ?
Bi O3 . 1_6555 3.27(4) 3.25(4) 3.31(4) ?
Bi O3 . 2_5555 3.27(4) 3.25(4) 3.31(4) ?
Bi O3 . 2_6555 2.63(3) 2.61(3) 2.68(3) ?
Bi O3 . 3_5565 3.27(4) 3.25(4) 3.31(4) ?
Bi O3 . 3_6565 2.64(3) 2.61(3) 2.69(3) ?
Bi O3 . 4_5565 2.64(3) 2.61(3) 2.69(3) ?
Bi O3 . 4_6565 3.27(4) 3.25(4) 3.31(4) ?
Bi O4 . . 3.59(4) 3.54(5) 3.69(5) ?
Bi O4 . 1_5565 3.59(4) 3.54(5) 3.68(5) ?
Bi O4 . 2_5555 3.77(5) 3.73(5) 3.88(5) ?
Bi O4 . 2_5565 3.77(5) 3.73(5) 3.87(5) ?
Bi O4 . 2_6555 2.47(3) 2.40(3) 2.64(3) ?
Bi O4 . 2_6565 2.47(3) 2.40(3) 2.63(3) ?
Bi O4 . 3_6555 3.59(4) 3.54(5) 3.69(5) ?
Bi O4 . 3_6565 3.59(4) 3.54(5) 3.68(5) ?
Bi O4 . 4_5555 2.47(3) 2.40(3) 2.64(3) ?
Bi O4 . 4_5565 2.47(3) 2.40(3) 2.63(3) ?
Bi O4 . 4_6555 3.77(5) 3.73(5) 3.88(5) ?
Bi O4 . 4_6565 3.77(5) 3.73(5) 3.87(5) ?
I I . 1_4555 3.96(5) 3.96(5) 3.96(5) ?
I I . 1_5545 4.050(2) 4.032(3) 4.060(3) ?
I I . 1_5565 4.050(2) 4.032(3) 4.060(3) ?
I I . 1_6555 3.96(5) 3.96(5) 3.96(5) ?
I B . 1_4555 3.96(5) 3.96(5) 3.96(5) ?
I B . 1_5545 3.9256(15) 3.903(3) 3.965(3) ?
I B . . 0.066(3) 0.066(3) 0.066(3) ?
I B . 1_5565 3.9256(15) 3.903(3) 3.965(3) ?
I B . 1_6555 3.96(5) 3.96(5) 3.96(5) ?
I O2 . . 1.30(3) 1.30(3) 1.30(3) ?
I O2 . 2_5555 1.30(3) 1.30(3) 1.30(3) ?
I O2 . 3_5555 1.30(3) 1.30(3) 1.30(3) ?
I O2 . 4_5555 1.30(3) 1.30(3) 1.30(3) ?
I O3 . 1_5545 1.29(3) 1.29(3) 1.29(3) ?
I O3 . 2_5545 1.29(3) 1.29(3) 1.29(3) ?
I O3 . 3_5565 1.29(3) 1.29(3) 1.29(3) ?
I O3 . 4_5565 1.29(3) 1.29(3) 1.29(3) ?
I O4 . . 1.31(5) 1.31(5) 1.31(5) ?
I O4 . 2_5555 1.31(5) 1.31(5) 1.31(5) ?
I O4 . 3_5555 1.31(5) 1.31(5) 1.31(5) ?
I O4 . 4_5555 1.31(5) 1.31(5) 1.31(5) ?
B O2 . . 1.32(3) 1.32(3) 1.32(3) ?
B O2 . 2_5555 1.32(3) 1.32(3) 1.32(3) ?
B O2 . 3_5555 1.32(3) 1.32(3) 1.32(3) ?
B O2 . 4_5555 1.32(3) 1.32(3) 1.32(3) ?
B O3 . 1_5545 1.35(3) 1.35(3) 1.35(3) ?
B O3 . 2_5545 1.35(3) 1.35(3) 1.35(3) ?
B O3 . 3_5565 1.35(3) 1.35(3) 1.35(3) ?
B O3 . 4_5565 1.35(3) 1.35(3) 1.35(3) ?
B O4 . . 1.31(5) 1.31(5) 1.31(5) ?
B O4 . 2_5555 1.31(5) 1.31(5) 1.31(5) ?
B O4 . 3_5555 1.31(5) 1.31(5) 1.31(5) ?
B O4 . 4_5555 1.31(5) 1.31(5) 1.31(5) ?
O2 O2 . 3_5555 0.81(5) 0.81(5) 0.81(5) ?
O2 O3 . 1_5545 1.59(3) 1.59(3) 1.59(3) ?
O2 O3 . 2_5545 1.59(3) 1.59(3) 1.59(3) ?
O2 O3 . 3_5565 2.14(4) 2.14(4) 2.14(4) ?
O2 O3 . 4_5565 2.14(4) 2.14(4) 2.14(4) ?
O2 O4 . . 1.19(5) 1.19(5) 1.19(5) ?
O2 O4 . 2_5555 2.34(6) 2.34(6) 2.34(6) ?
O2 O4 . 3_5555 1.19(5) 1.19(5) 1.19(5) ?
O2 O4 . 4_5555 2.34(6) 2.34(6) 2.34(6) ?
O3 O3 . 2_5555 0.95(6) 0.95(6) 0.95(6) ?
O3 O3 . 3_5565 1.73(4) 1.73(4) 1.73(4) ?
O3 O3 . 4_5565 1.44(4) 1.44(4) 1.44(4) ?
O3 O4 . 1_5565 1.60(4) 1.60(4) 1.60(4) ?
O3 O4 . 2_5565 2.12(5) 2.12(5) 2.12(5) ?
O3 O4 . 3_5565 2.12(5) 2.12(5) 2.12(5) ?
O3 O4 . 4_5565 1.60(4) 1.60(4) 1.60(4) ?
O4 O4 . 3_5555 2.05(7) 2.05(7) 2.05(7) ?
O4 O4 . 3_6555 1.91(7) 1.91(7) 1.91(7) ?
O4 O4 . 4_5555 1.62(8) 1.62(8) 1.62(8) ?
loop_
_geom_hbond_atom_site_label_D
_geom_hbond_atom_site_label_H
_geom_hbond_atom_site_label_A
_geom_hbond_site_symmetry_D
_geom_hbond_site_symmetry_H
_geom_hbond_site_symmetry_A
_geom_hbond_distance_DH
_geom_hbond_distance_HA
_geom_hbond_distance_DA
_geom_hbond_angle_DHA
_geom_hbond_publ_flag
? ? ? ? ? ? ? ? ? ? ?
loop_
_geom_torsion_atom_site_label_1
_geom_torsion_atom_site_label_2
_geom_torsion_atom_site_label_3
_geom_torsion_atom_site_label_4
_geom_torsion_site_ssg_symmetry_1
_geom_torsion_site_ssg_symmetry_2
_geom_torsion_site_ssg_symmetry_3
_geom_torsion_site_ssg_symmetry_4
_geom_torsion_av
_geom_torsion_min
_geom_torsion_max
? ? ? ? ? ? ? ? ? ? ?
loop_
_refln_index_h
_refln_index_k
_refln_index_l
_refln_index_m_1
_refln_F_squared_calc
_refln_F_squared_meas
_refln_F_squared_sigma
_refln_observed_status
0 0 2 0 61421.30 65857.70 933.53 o
0 0 2 2 34.77 39.05 17.99 <
0 0 4 -2 305.07 295.97 49.01 o
0 0 4 -1 8187.94 8127.17 379.10 o
0 0 4 0 7208.25 7031.06 406.76 o
0 0 4 1 1362.64 1194.36 203.05 o
0 0 4 2 1.41 35.22 82.31 <
0 1 1 -2 17.67 9.19 7.66 <
0 1 1 -1 119.35 32.56 27.77 <
0 1 1 0 8641.25 8608.96 110.25 o
0 1 1 2 6.10 16.46 15.31 <
0 1 3 -2 16.27 32.16 21.06 <
0 1 3 -1 643.11 726.90 66.08 o
0 1 3 0 1220.23 1176.28 78.55 o
0 1 3 2 64.00 79.63 27.18 <
0 1 5 -2 115.43 132.85 65.85 <
0 1 5 -1 375.43 201.08 163.74 <
0 1 5 0 4.94 170.43 157.02 <
0 1 5 1 333.05 268.11 370.56 <
0 2 0 0 6624.72 5628.61 109.68 o
0 2 0 1 64.48 53.62 24.90 <
0 2 2 -2 3.20 0.38 15.31 <
0 2 2 0 3311.28 3261.38 78.66 o
0 2 2 1 716.79 714.51 48.85 o
0 2 2 2 44.12 40.58 17.99 <
0 2 4 -2 53.11 8.04 45.56 <
0 2 4 -1 347.44 244.17 107.25 <
0 2 4 0 254.76 383.01 136.93 <
0 2 4 1 204.75 178.10 130.22 <
0 2 4 2 68.42 124.04 69.68 <
0 3 1 -2 0.74 18.38 16.85 <
0 3 1 -1 4604.03 4408.96 62.53 o
0 3 1 0 86117.50 87827.80 807.09 o
0 3 1 2 27.62 8.04 14.55 <
0 3 3 -2 219.53 259.98 23.74 o
0 3 3 0 18979.20 18759.80 290.15 o
0 3 3 1 1885.04 1828.91 90.06 o
0 3 3 2 13.82 46.71 29.86 <
0 3 5 -2 387.11 443.38 75.81 o
0 3 5 -1 4442.33 4300.50 349.83 o
0 3 5 0 1393.45 1127.27 237.52 o
0 4 0 0 12549.20 12546.80 219.17 o
0 4 0 1 2155.08 2040.90 64.29 o
0 4 0 2 2.61 16.85 17.23 <
0 4 2 -2 14.80 0.77 18.38 <
0 4 2 -1 111.61 148.41 39.26 o
0 4 2 0 4962.36 5159.04 103.66 o
0 4 2 2 44.17 31.01 16.85 <
0 4 4 -2 121.35 69.30 35.61 <
0 4 4 -1 850.91 875.32 105.34 o
0 4 4 0 95.35 158.94 197.24 <
0 4 4 2 115.21 104.14 63.17 <
0 5 1 -1 20.33 31.60 43.09 <
0 5 1 0 536.88 413.77 42.14 o
0 5 1 1 10.76 22.98 46.92 <
0 5 1 2 14.75 3.45 19.53 <
0 5 3 -2 23.87 14.55 29.10 <
0 5 3 -1 218.99 152.25 50.75 <
0 5 3 0 65.36 101.49 97.66 <
0 5 3 1 0.90 83.30 80.43 <
0 5 5 -2 65.33 60.87 115.24 <
0 5 5 -1 112.09 133.09 179.05 <
0 5 5 0 6.31 359.04 401.17 <
0 6 0 0 56106.40 51579.40 702.40 o
0 6 0 2 11.03 29.48 25.65 <
0 6 2 -2 40.06 40.58 17.61 <
0 6 2 0 26434.00 27387.80 339.87 o
0 6 2 1 628.82 664.64 65.12 o
0 6 2 2 101.03 41.73 29.48 <
0 6 4 -2 264.94 227.81 44.03 o
0 6 4 0 3989.69 3088.96 238.65 o
0 6 4 1 930.64 737.40 145.57 o
0 6 4 2 21.72 142.42 102.60 <
0 7 1 -2 15.31 21.06 23.35 <
0 7 1 -1 327.05 252.81 50.75 o
0 7 1 0 14970.60 15114.00 213.20 o
0 7 1 2 7.62 26.42 42.88 <
0 7 3 -2 60.95 44.03 39.82 <
0 7 3 -1 831.53 758.50 85.24 o
0 7 3 0 1923.29 1719.62 121.67 o
0 7 3 1 2763.37 2442.47 134.15 o
0 7 3 2 70.42 75.04 36.37 <
0 7 5 -2 192.01 120.60 143.19 <
0 8 0 0 1126.99 1449.42 116.87 o
0 8 0 1 392.90 443.38 66.08 o
0 8 2 -2 41.26 46.71 27.18 <
0 8 2 -1 108.39 87.13 72.77 <
0 8 2 0 341.53 369.62 69.90 o
0 8 2 1 269.15 210.66 71.82 <
0 8 2 2 28.78 37.52 40.58 <
0 8 4 -1 36.83 65.11 137.87 <
0 8 4 0 35.93 97.66 145.53 <
0 8 4 1 91.29 271.92 301.60 <
0 8 4 2 10.40 0.38 133.23 <
0 9 1 -2 13.73 3.83 39.05 <
0 9 1 -1 3257.55 3092.88 109.30 o
0 9 1 0 28770.80 28900.10 391.26 o
0 9 1 1 64.46 112.98 148.41 <
0 9 1 2 115.80 0.77 46.71 <
0 9 3 -2 88.16 45.18 40.58 <
0 9 3 -1 5469.06 5531.26 216.72 o
0 9 3 0 8651.20 8195.08 272.56 o
0 9 3 1 289.85 246.08 111.07 <
0 9 3 2 104.35 6.51 117.54 <
0 10 0 0 14273.30 14700.20 357.15 o
0 10 0 1 766.36 709.68 91.94 o
0 10 0 2 10.84 22.21 34.84 <
0 10 2 -2 60.14 66.23 34.07 <
0 10 2 -1 268.41 361.95 84.26 o
0 10 2 0 6333.45 5920.04 245.59 o
0 10 2 1 2586.56 2855.40 183.97 o
0 10 2 2 37.53 25.27 67.00 <
0 10 4 -2 193.92 98.40 74.28 <
0 10 4 -1 823.83 1091.70 201.10 o
0 10 4 0 345.10 597.49 507.49 <
0 10 4 1 1135.76 1264.15 516.20 <
0 10 4 2 110.36 191.43 175.73 <
0 11 1 -2 72.54 118.30 50.15 <
0 11 1 -1 313.86 160.87 100.54 <
0 11 1 0 1217.45 1364.91 112.07 o
0 11 1 1 949.78 858.14 130.25 o
0 11 1 2 61.80 91.88 46.33 <
0 11 3 -2 44.17 73.89 62.02 <
0 11 3 -1 13.41 36.38 150.32 <
0 11 3 0 136.45 236.50 138.84 <
0 11 3 1 623.42 622.44 161.83 o
0 11 3 2 27.20 50.92 119.45 <
0 12 0 0 18243.00 19719.50 493.01 o
0 12 0 1 1198.16 1217.37 116.85 o
0 12 0 2 58.60 19.14 55.13 <
0 12 2 -2 3.40 5.36 107.58 <
0 12 2 0 10506.50 11043.90 390.79 o
0 12 2 2 160.98 73.89 71.98 <
0 12 4 -2 104.04 4.21 119.83 <
0 12 4 -1 2945.58 2262.98 450.30 o
0 13 1 -2 72.28 55.13 73.51 <
0 13 1 0 5744.88 5980.18 292.49 o
0 13 1 1 934.03 1118.59 158.02 o
0 13 1 2 25.23 71.98 59.72 <
0 13 3 -2 188.18 69.30 76.57 <
0 13 3 -1 699.11 682.77 180.03 o
0 13 3 0 924.48 558.31 185.79 o
0 13 3 1 1150.16 721.15 262.41 <
0 14 0 0 1427.29 1081.37 210.72 o
0 14 0 1 667.97 533.39 147.47 o
0 14 0 2 138.58 234.69 81.93 <
0 14 2 -2 92.92 89.59 72.74 <
0 14 2 0 504.04 441.44 159.91 <
0 14 2 1 1090.47 713.48 176.22 o
0 14 2 2 116.03 29.86 106.82 <
0 15 1 -2 19.40 105.28 79.63 <
0 15 1 -1 1949.28 2101.65 212.66 o
0 15 1 0 5994.94 6014.87 305.87 o
0 15 1 1 596.15 579.34 157.04 o
0 15 1 2 125.88 94.57 81.17 <
0 15 3 -1 2209.29 1766.40 327.61 o
0 15 3 0 2851.93 2825.28 618.90 o
0 16 0 0 2724.03 3175.99 365.98 o
0 16 0 1 51.86 86.17 285.32 <
0 16 0 2 51.43 89.20 68.15 <
0 16 2 -2 162.61 62.79 87.29 <
0 16 2 -1 270.26 390.66 216.40 <
0 16 2 0 1095.98 755.61 235.59 o
0 16 2 1 533.10 629.12 329.40 <
0 17 1 -2 191.54 193.73 185.31 <
0 17 1 -1 104.02 517.03 278.62 <
0 17 1 0 1304.60 486.53 360.11 <
0 17 1 1 688.94 685.64 450.07 <
0 17 1 2 230.44 347.64 252.69 <
0 18 0 0 2481.91 2231.11 616.93 o
0 18 0 1 911.36 1006.48 372.52 <
1 0 1 -2 0.26 3.83 28.33 <
1 0 1 0 73029.20 72556.30 683.38 o
1 0 1 1 597.63 593.88 42.15 o
1 0 3 -2 225.17 250.02 26.42 o
1 0 3 -1 9355.71 9339.95 213.32 o
1 0 3 0 15590.10 16018.00 350.44 o
1 0 3 1 1984.50 1983.21 138.92 o
1 0 5 -1 4405.26 4335.91 276.98 o
1 0 5 0 970.98 1009.37 274.85 o
1 0 5 1 772.93 1788.82 776.62 <
1 1 0 0 8848.74 9200.86 114.14 o
1 1 0 1 789.09 732.14 22.04 o
1 1 0 2 0.74 11.10 18.38 <
1 1 2 -2 8.28 7.27 16.08 <
1 1 2 0 3952.58 4031.40 70.04 o
1 1 2 2 41.80 44.41 16.46 <
1 1 4 -2 82.29 70.45 32.93 <
1 1 4 -1 521.24 568.81 94.80 o
1 1 4 0 178.25 371.51 113.94 o
1 1 4 1 752.72 714.39 100.55 o
1 1 4 2 95.38 78.87 46.33 <
1 2 1 -2 16.79 16.46 14.17 <
1 2 1 -1 12.95 36.38 23.94 <
1 2 1 0 1094.47 1029.18 30.66 o
1 2 1 1 621.82 619.74 26.82 o
1 2 1 2 5.99 13.78 11.87 <
1 2 3 -2 27.57 22.21 16.08 <
1 2 3 -1 355.04 350.47 46.92 o
1 2 3 0 154.73 151.29 46.92 o
1 2 3 1 482.71 445.28 55.54 o
1 2 3 2 32.44 43.26 24.89 <
1 2 5 -2 93.55 76.95 47.09 <
1 2 5 -1 199.24 277.67 147.45 <
1 2 5 0 23.70 651.07 406.92 <
1 2 5 1 114.35 429.90 314.05 <
1 3 0 0 91583.40 90537.80 827.31 o
1 3 0 1 305.42 283.48 22.03 o
1 3 0 2 4.23 16.85 15.31 <
1 3 2 -2 49.62 46.71 9.95 o
1 3 2 0 38951.40 39951.20 333.58 o
1 3 2 2 58.59 70.06 14.55 o
1 3 4 -2 284.21 277.20 33.69 o
1 3 4 -1 6801.37 6592.90 169.79 o
1 3 4 0 5252.92 4966.39 168.74 o
1 4 1 -2 12.90 8.81 9.57 <
1 4 1 -1 338.69 336.14 28.73 o
1 4 1 0 17606.30 18897.70 149.11 o
1 4 1 1 3446.11 3458.65 46.05 o
1 4 1 2 15.22 8.04 10.72 <
1 4 3 -2 38.20 28.33 16.08 <
1 4 3 0 2356.14 2224.92 74.74 o
1 4 3 1 2108.12 2220.81 92.93 o
1 4 3 2 90.23 66.23 29.10 <
1 4 5 -2 143.89 93.80 50.92 <
1 4 5 -1 488.21 764.13 189.60 o
1 5 0 0 308.54 394.55 43.09 o
1 5 0 1 19.52 55.53 28.72 <
1 5 0 2 2.60 6.89 30.63 <
1 5 2 -2 16.46 12.25 11.49 <
1 5 2 -1 106.75 75.64 34.47 <
1 5 2 0 177.83 125.43 38.30 o
1 5 2 1 6.42 35.43 45.00 <
1 5 2 2 24.98 11.87 21.82 <
1 5 4 -2 51.19 60.11 35.99 <
1 5 4 -1 148.09 225.01 76.60 <
1 5 4 0 17.03 107.24 109.15 <
1 5 4 1 0.20 98.62 147.45 <
1 5 4 2 26.66 75.04 71.59 <
1 6 1 -2 2.13 26.42 32.54 <
1 6 1 -1 3765.02 3993.93 70.99 o
1 6 1 0 52492.30 50728.40 407.06 o
1 6 1 2 58.84 35.99 33.69 <
1 6 3 -2 130.80 126.73 17.99 o
1 6 3 0 14371.20 14119.90 229.83 o
1 6 3 1 773.17 639.72 73.74 o
1 6 3 2 40.99 37.90 31.78 <
1 6 5 -2 287.47 222.45 62.03 o
1 6 5 -1 3335.13 2846.69 582.56 o
1 6 5 0 1467.32 1279.56 480.79 <
1 7 0 0 15317.10 16417.20 229.64 o
1 7 0 2 8.75 27.95 17.99 <
1 7 2 -2 45.93 44.79 40.58 <
1 7 2 -1 179.21 177.14 45.00 o
1 7 2 0 6126.92 6417.93 116.11 o
1 7 2 2 48.47 39.82 25.27 <
1 7 4 -1 852.75 926.05 108.21 o
1 7 4 0 208.84 93.83 117.77 <
1 7 4 1 1277.18 986.47 153.24 o
1 7 4 2 126.20 109.88 82.70 <
1 8 1 -2 48.07 35.61 21.06 <
1 8 1 -1 211.24 192.46 53.62 o
1 8 1 0 10.68 44.04 46.92 <
1 8 1 1 424.59 361.98 57.46 o
1 8 1 2 41.81 23.74 31.78 <
1 8 3 -2 35.99 31.78 30.25 <
1 8 3 -1 69.84 103.41 77.56 <
1 8 3 0 10.50 97.66 101.49 <
1 8 3 1 265.75 233.63 94.79 <
1 8 3 2 29.55 28.71 109.50 <
1 8 5 -1 24.11 296.81 372.45 <
1 9 0 0 31548.10 31208.10 429.50 o
1 9 0 1 883.40 964.49 54.59 o
1 9 0 2 29.88 32.16 30.25 <
1 9 2 -1 4749.81 4781.41 125.62 o
1 9 2 0 16470.10 16490.30 265.65 o
1 9 2 1 50.30 138.83 79.47 <
1 9 2 2 117.63 102.22 45.56 <
1 9 4 -2 178.60 127.11 42.88 <
1 9 4 -1 4093.28 4295.45 180.18 o
1 9 4 0 3048.03 2874.36 202.16 o
1 9 4 1 279.07 264.27 366.73 <
1 9 4 2 52.38 15.31 137.44 <
1 10 1 -2 41.91 33.69 25.65 <
1 10 1 0 6941.60 7081.75 163.15 o
1 10 1 1 1888.59 1748.44 94.85 o
1 10 1 2 15.17 26.42 32.16 <
1 10 3 -2 137.72 67.38 39.43 <
1 10 3 -1 726.33 741.21 101.51 o
1 10 3 0 981.96 707.73 109.18 o
1 10 3 1 1934.92 2138.04 143.69 o
1 10 3 2 49.11 100.69 56.28 <
1 11 0 0 1408.46 1477.07 113.99 o
1 11 0 2 94.17 56.28 30.63 <
1 11 2 -2 80.11 82.31 75.81 <
1 11 2 -1 85.00 156.07 116.81 <
1 11 2 0 451.10 339.94 90.97 o
1 11 2 1 803.32 969.15 101.51 o
1 11 2 2 73.82 46.33 52.83 <
1 11 4 -2 52.33 109.50 96.48 <
1 11 4 0 7.59 346.60 250.85 <
1 12 1 -1 2271.98 2168.15 115.93 o
1 12 1 0 11155.20 11693.60 239.17 o
1 12 1 1 287.34 311.20 94.80 o
1 12 3 0 3999.91 4191.82 201.25 o
1 12 3 1 23.27 183.83 170.43 <
1 12 3 2 157.72 130.94 77.34 <
1 13 0 0 5908.18 6193.35 280.99 o
1 13 0 1 225.62 284.38 105.33 <
1 13 0 2 25.06 37.90 38.67 <
1 13 2 -2 104.76 94.95 87.67 <
1 13 2 -1 283.11 322.68 106.29 o
1 13 2 0 2543.87 2470.82 164.79 o
1 13 2 1 1166.57 1299.63 136.00 o
1 13 2 2 21.28 76.57 58.96 <
1 13 4 -2 237.83 124.81 131.32 <
1 14 1 -2 133.88 35.99 60.11 <
1 14 1 -1 173.87 124.47 326.51 <
1 14 1 0 1729.10 1225.11 139.85 o
1 14 1 1 797.60 813.04 138.86 o
1 14 1 2 139.31 132.09 80.02 <
1 14 3 -2 71.73 83.84 68.53 <
1 14 3 -1 3.73 278.62 293.94 <
1 14 3 0 335.58 178.10 239.38 <
1 14 3 1 680.80 875.24 278.66 o
1 15 0 0 5955.15 5930.43 309.71 o
1 15 0 1 1122.82 1169.37 136.95 o
1 15 0 2 82.06 81.55 49.77 <
1 15 2 -2 2.64 69.68 59.34 <
1 15 2 -1 2088.11 1976.17 164.76 o
1 15 2 0 4047.45 3602.37 212.75 o
1 15 2 1 162.93 270.01 177.13 <
1 15 2 2 191.09 131.32 88.44 <
1 16 1 -2 103.58 123.28 73.89 <
1 16 1 0 2682.26 2884.65 184.90 o
1 16 1 1 212.39 314.06 156.07 <
1 17 0 0 1536.69 1030.57 362.04 <
1 17 0 1 312.24 529.51 329.39 <
1 17 0 2 198.66 68.92 132.85 <
1 17 2 -2 118.79 94.18 83.85 <
1 17 2 -1 2.64 97.66 398.30 <
2 0 0 0 72713.20 73706.90 1061.21 o
2 0 0 1 322.98 322.72 39.26 o
2 0 0 2 9.41 23.74 17.23 <
2 0 2 -2 47.70 60.49 16.85 o
2 0 2 -1 5941.77 5611.50 154.54 o
2 0 2 0 33844.50 33012.40 496.86 o
2 0 2 1 785.84 783.42 97.69 o
2 0 2 2 40.47 62.40 35.22 <
2 0 4 -2 248.43 258.82 51.69 o
2 0 4 -1 5592.02 5372.34 233.96 o
2 0 4 0 4857.38 4508.29 235.82 o
2 0 4 1 766.20 674.17 181.95 o
2 1 1 -2 15.97 22.21 40.20 <
2 1 1 -1 33.96 53.62 22.98 <
2 1 1 0 4883.22 5147.70 76.79 o
2 1 1 1 1167.88 1183.12 42.15 o
2 1 1 2 21.32 22.97 14.93 <
2 1 3 -2 57.32 67.38 27.95 <
2 1 3 -1 359.27 330.36 61.28 o
2 1 3 0 771.45 811.15 87.15 o
2 1 3 1 927.79 1020.91 96.73 o
2 1 3 2 64.49 67.38 47.86 <
2 1 5 -2 117.77 114.86 60.11 <
2 1 5 -1 240.23 386.83 204.90 <
2 2 0 0 4060.18 4180.14 90.20 o
2 2 0 1 112.03 98.62 22.98 o
2 2 0 2 17.74 17.99 13.78 <
2 2 2 -2 24.29 36.37 24.89 <
2 2 2 -1 93.52 83.30 32.55 <
2 2 2 0 1733.07 1760.99 67.07 o
2 2 2 1 324.54 311.21 47.88 o
2 2 2 2 41.05 55.90 22.59 <
2 2 4 -2 66.93 47.47 33.31 <
2 2 4 -1 222.94 246.08 97.67 <
2 2 4 0 149.52 256.61 118.73 <
2 2 4 1 105.63 225.96 180.01 <
2 2 4 2 67.09 62.79 51.30 <
2 3 1 -2 1.94 11.49 13.40 <
2 3 1 -1 2972.81 2909.22 58.49 o
2 3 1 0 45026.20 45097.00 379.52 o
2 3 1 2 44.16 17.23 15.70 <
2 3 3 -2 146.96 134.00 21.06 o
2 3 3 -1 6511.15 6716.83 162.14 o
2 3 3 0 11793.10 12304.10 256.54 o
2 3 3 1 918.95 998.88 93.85 o
2 3 3 2 31.55 60.49 35.60 <
2 3 5 -2 295.74 320.46 66.62 o
2 3 5 -1 3130.94 2833.13 301.80 o
2 4 0 0 7187.11 6930.82 132.60 o
2 4 0 2 13.16 6.13 12.63 <
2 4 2 -2 42.66 46.33 25.65 <
2 4 2 -1 138.99 111.07 45.96 <
2 4 2 0 2623.38 2578.97 71.88 o
2 4 2 1 2126.88 2164.47 64.20 o
2 4 2 2 35.48 34.46 20.67 <
2 4 4 -1 575.64 579.34 98.63 o
2 4 4 0 46.53 128.30 102.45 <
2 4 4 1 832.39 715.35 131.20 o
2 4 4 2 94.72 98.78 60.87 <
2 5 1 -2 39.01 46.71 14.93 o
2 5 1 -1 49.28 47.87 76.60 <
2 5 1 0 202.49 185.76 45.00 o
2 5 1 1 5.01 67.98 66.06 <
2 5 1 2 39.59 35.22 22.21 <
2 5 3 -2 53.37 51.69 26.42 <
2 5 3 -1 132.67 127.35 78.51 <
2 5 3 0 39.48 238.41 97.66 <
2 5 3 1 0.71 191.49 275.74 <
2 5 3 2 39.79 55.90 66.62 <
2 5 5 -2 68.41 90.74 95.33 <
2 5 5 -1 72.30 130.21 280.54 <
2 6 0 0 32430.00 32937.30 418.38 o
2 6 0 2 26.47 24.50 14.17 <
2 6 2 -2 31.59 65.47 29.86 <
2 6 2 -1 4843.24 4608.34 128.52 o
2 6 2 0 17058.50 18271.00 242.65 o
2 6 2 1 275.95 339.92 57.45 o
2 6 2 2 90.36 53.98 40.97 <
2 6 4 -2 209.69 138.60 40.97 o
2 6 4 -1 4193.11 4574.52 200.31 o
2 6 4 0 2827.69 2753.52 173.41 o
2 6 4 1 538.22 412.71 142.68 <
2 6 4 2 33.44 114.09 108.73 <
2 7 1 -2 26.54 18.76 19.14 <
2 7 1 -1 46.86 21.06 49.79 <
2 7 1 0 7495.99 7433.10 164.18 o
2 7 1 1 1770.32 1809.77 97.72 o
2 7 1 2 17.90 36.75 32.92 <
2 7 3 -2 104.69 38.29 48.62 <
2 7 3 -1 578.04 485.50 96.72 o
2 7 3 0 1070.60 1012.31 115.88 o
2 7 3 1 1539.58 1640.75 139.84 o
2 7 3 2 62.84 121.36 52.45 <
2 8 0 0 654.41 376.37 62.25 o
2 8 0 2 60.84 44.41 32.93 <
2 8 2 -2 61.75 65.09 38.29 <
2 8 2 -1 93.52 61.28 156.07 <
2 8 2 0 273.64 207.78 90.97 <
2 8 2 1 228.29 272.89 88.09 o
2 8 2 2 45.85 94.18 50.54 <
2 8 4 -2 59.81 102.22 58.19 <
2 8 4 0 36.22 306.39 194.36 <
2 8 4 1 76.32 210.64 244.15 <
2 9 1 -1 2215.22 2235.34 102.52 o
2 9 1 0 18634.80 18728.40 289.91 o
2 9 1 1 87.17 206.82 105.32 <
2 9 1 2 103.46 56.66 54.75 <
2 9 3 -2 63.88 45.18 40.97 <
2 9 3 -1 3869.82 4223.64 164.84 o
2 9 3 0 5953.07 6345.71 217.66 o
2 9 3 1 135.73 193.41 113.94 <
2 9 3 2 105.93 97.63 58.96 <
2 10 0 0 7965.77 7930.97 257.23 o
2 10 0 1 332.46 419.41 70.86 o
2 10 0 2 31.04 52.07 26.42 <
2 10 2 -2 91.01 84.99 45.94 <
2 10 2 -1 244.11 239.38 85.22 <
2 10 2 0 3522.75 3158.74 148.54 o
2 10 2 1 1349.14 1311.21 115.89 o
2 10 2 2 36.09 37.90 52.83 <
2 10 4 -2 200.81 55.90 63.17 <
2 10 4 -1 550.69 666.47 231.73 <
2 10 4 0 185.70 935.47 341.82 <
2 11 1 -2 87.86 30.63 40.20 <
2 11 1 -1 201.74 233.63 96.71 <
2 11 1 0 807.41 528.63 107.26 o
2 11 1 1 603.10 535.30 103.42 o
2 11 1 2 92.53 53.98 46.71 <
2 11 3 -2 58.48 57.43 53.22 <
2 11 3 -1 7.04 76.60 219.26 <
2 11 3 0 99.87 262.35 321.71 <
2 11 3 1 423.77 291.09 173.32 <
2 11 3 2 47.88 53.98 88.44 <
2 12 0 0 12083.20 10939.10 414.01 o
2 12 0 1 958.03 993.13 120.67 o
2 12 0 2 55.15 49.01 64.70 <
2 12 2 0 7365.71 7689.68 256.10 o
2 12 2 2 138.48 100.31 57.05 <
2 13 1 -2 91.68 98.78 72.36 <
2 13 1 -1 17.03 185.75 151.28 <
2 13 1 0 3322.93 3268.56 179.19 o
2 13 1 1 468.26 609.97 115.86 o
2 13 1 2 37.37 68.15 92.27 <
2 13 3 -2 210.43 111.03 77.34 <
2 13 3 -1 480.42 395.47 245.13 <
2 13 3 0 522.77 786.16 324.61 <
2 13 3 1 666.47 108.21 684.67 <
2 14 0 0 906.37 495.11 180.04 <
2 14 0 1 378.48 172.36 122.57 <
2 14 0 2 163.55 82.70 76.57 <
2 14 2 -2 103.18 103.37 138.59 <
2 14 2 -1 16.71 85.21 179.04 <
2 14 2 0 350.67 187.68 160.86 <
2 14 2 1 711.86 451.99 260.47 <
2 14 2 2 137.68 144.72 115.24 <
2 15 1 -2 18.52 68.91 66.62 <
2 15 1 -1 1447.81 1308.31 154.20 o
2 15 1 0 4408.14 4093.37 272.19 o
2 15 1 1 468.45 209.70 209.70 <
2 15 1 2 112.42 102.22 78.10 <
2 16 0 0 1583.46 1227.88 364.92 o
2 16 0 2 75.54 215.55 135.91 <
2 16 2 -2 186.94 45.94 200.62 <
3 0 1 -1 1947.95 2059.97 94.85 o
3 0 1 0 24517.60 24131.20 373.74 o
3 0 1 1 11.84 46.92 59.36 <
3 0 1 2 55.44 13.02 25.27 <
3 0 3 -2 112.97 143.57 42.11 o
3 0 3 -1 4536.77 4380.90 218.57 o
3 0 3 0 6589.29 6833.48 298.27 o
3 0 3 1 500.48 259.50 148.42 <
3 0 3 2 48.49 83.46 53.60 <
3 1 0 0 2661.68 2603.01 121.72 o
3 1 0 1 147.35 156.07 44.05 o
3 1 0 2 40.27 7.66 26.03 <
3 1 2 -2 59.87 90.35 57.05 <
3 1 2 -1 114.18 65.11 45.96 <
3 1 2 0 1081.56 1148.36 83.33 o
3 1 2 1 504.60 584.13 78.52 o
3 1 2 2 43.67 34.07 60.49 <
3 1 4 -2 108.98 99.54 40.97 <
3 1 4 -1 233.68 221.18 101.50 <
3 1 4 0 45.59 418.41 213.51 <
3 1 4 1 228.66 528.54 212.56 <
3 2 1 -2 43.52 37.14 23.35 <
3 2 1 -1 23.91 90.00 67.02 <
3 2 1 0 342.49 473.99 49.79 o
3 2 1 1 79.51 150.32 50.75 <
3 2 1 2 42.74 32.16 20.67 <
3 2 3 -2 83.79 55.13 39.82 <
3 2 3 -1 157.55 180.97 80.43 <
3 2 3 0 50.16 131.17 84.26 <
3 2 3 1 116.46 196.28 111.07 <
3 2 3 2 50.89 55.13 40.58 <
3 3 0 0 28036.20 28394.70 415.83 o
3 3 0 1 510.92 524.78 57.46 o
3 3 0 2 24.95 18.38 23.35 <
3 3 2 -2 28.89 60.49 28.33 <
3 3 2 0 15104.40 15290.70 229.86 o
3 3 2 1 214.39 271.93 75.64 o
3 3 2 2 67.67 69.68 37.52 <
3 3 4 -2 173.76 214.79 53.98 o
3 3 4 -1 3327.87 3281.77 202.18 o
3 3 4 0 2607.33 3536.97 379.37 o
3 4 1 -2 42.11 37.14 38.29 <
3 4 1 -1 14.92 72.77 110.11 <
3 4 1 0 4675.07 4395.70 124.66 o
3 4 1 1 765.14 726.88 68.00 o
3 4 1 2 38.12 27.95 30.63 <
3 4 3 -2 107.72 19.14 46.33 <
3 4 3 -1 305.91 206.82 97.67 <
3 4 3 0 780.19 763.24 112.04 o
3 4 3 1 655.13 589.88 128.32 o
3 4 3 2 73.36 106.43 47.47 <
3 5 0 0 113.29 220.22 86.17 <
3 5 0 1 14.02 86.17 79.47 <
3 5 0 2 62.39 19.91 29.86 <
3 5 2 -2 61.57 33.31 31.39 <
3 5 2 -1 65.41 102.45 92.87 <
3 5 2 0 40.69 228.83 93.83 <
3 5 2 1 5.39 82.34 123.51 <
3 5 2 2 51.17 78.48 48.62 <
3 5 4 -2 69.44 141.65 96.48 <
3 5 4 -1 63.91 247.98 236.49 <
3 5 4 0 7.70 171.38 348.51 <
3 6 1 -1 1885.41 1789.56 102.51 o
3 6 1 0 19555.30 20092.30 319.77 o
3 6 1 2 66.47 43.65 45.94 <
3 6 3 -2 70.64 102.99 42.88 <
3 6 3 -1 3430.19 3528.33 180.15 o
3 6 3 0 6445.94 6834.35 248.37 o
3 6 3 1 189.69 333.21 127.35 <
3 6 3 2 64.65 80.02 62.02 <
3 7 0 0 4790.93 4346.42 205.19 o
3 7 0 1 289.91 287.26 67.98 o
3 7 0 2 48.92 49.01 32.93 <
3 7 2 -2 102.44 29.10 45.18 <
3 7 2 -1 153.42 197.24 106.28 <
3 7 2 0 1888.71 1898.61 132.19 o
3 7 2 1 917.45 835.09 105.34 o
3 7 2 2 44.67 60.49 45.56 <
3 7 4 -2 180.62 82.32 76.96 <
3 7 4 -1 379.28 512.28 323.64 <
3 8 1 -2 82.82 34.07 57.43 <
3 8 1 -1 89.82 208.73 98.62 <
3 8 1 0 16.91 238.41 118.72 <
3 8 1 1 177.21 188.63 105.32 <
3 8 1 2 92.53 70.06 50.15 <
3 8 3 -2 68.92 66.23 58.58 <
3 8 3 0 4.08 234.57 145.53 <
3 8 3 1 134.47 443.31 229.79 <
3 8 3 2 62.77 175.35 112.18 <
3 9 0 0 12786.00 12813.30 383.36 o
3 9 0 1 689.30 608.09 101.51 o
3 9 0 2 35.25 53.98 70.83 <
3 9 2 0 7513.17 7998.01 243.64 o
3 9 2 2 100.30 68.91 60.11 <
3 10 1 -2 80.36 65.85 41.73 <
3 10 1 0 2203.83 1610.38 128.37 o
3 10 1 1 458.68 586.98 109.16 o
3 10 1 2 36.98 55.51 67.00 <
3 10 3 -2 185.38 215.17 111.80 <
3 10 3 -1 357.07 809.11 289.17 <
3 10 3 0 288.51 357.15 252.78 <
3 10 3 1 636.70 717.23 377.29 <
3 11 0 0 569.98 356.22 175.24 <
3 11 0 1 239.14 314.06 249.91 <
3 11 0 2 146.19 78.10 64.32 <
3 11 2 -2 104.53 15.31 98.78 <
3 11 2 -1 27.96 237.45 304.47 <
3 11 2 0 232.09 286.29 192.46 <
3 11 2 1 360.23 447.17 268.11 <
3 11 2 2 114.12 116.77 126.34 <
3 12 1 -1 1286.72 1127.26 141.75 o
3 12 1 0 5467.36 5596.77 229.12 o
3 12 1 1 239.26 246.08 145.54 <
3 12 1 2 101.17 56.28 64.70 <
3 12 3 -2 22.22 114.09 106.43 <
3 12 3 -1 1821.68 1241.35 636.96 <
3 13 0 0 2010.81 1608.30 228.94 o
3 13 0 2 64.74 143.57 60.11 <
3 13 2 -2 153.87 285.23 130.17 <
3 13 2 -1 178.45 141.71 238.41 <
3 13 2 0 818.47 642.56 277.71 <
3 14 1 -2 155.93 165.40 129.79 <
3 14 1 -1 57.18 634.80 489.26 <
3 14 1 0 857.04 934.65 410.82 <
3 14 1 1 324.46 588.87 312.15 <
3 14 1 2 182.54 217.46 148.55 <
3 15 0 0 3321.23 4137.26 1014.67 o
3 15 0 1 669.86 410.81 600.41 <
3 15 0 2 74.09 84.61 236.99 <
4 0 0 0 16529.10 16133.10 460.70 o
4 0 0 1 360.58 483.56 98.63 o
4 0 0 2 24.17 32.92 49.77 <
4 0 2 -2 17.12 72.74 46.32 <
4 0 2 -1 2112.83 2175.52 186.80 o
4 0 2 0 9333.41 9866.21 349.31 o
4 0 2 1 53.45 106.28 286.28 <
4 0 2 2 67.22 122.51 50.54 <
4 0 4 -2 106.50 10.34 257.66 <
4 1 1 -2 76.13 35.22 38.67 <
4 1 1 0 721.79 683.75 81.40 o
4 1 1 1 94.95 221.18 77.56 <
4 1 1 2 61.35 24.12 34.84 <
4 1 3 -2 118.61 49.39 38.67 <
4 1 3 -1 125.74 198.20 113.94 <
4 1 3 0 114.56 375.33 188.62 <
4 1 3 2 68.44 190.28 196.40 <
4 2 0 0 581.84 550.62 95.76 o
4 2 0 1 3.21 192.45 200.11 <
4 2 0 2 82.56 60.11 33.31 <
4 2 2 -2 90.28 31.78 47.86 <
4 2 2 -1 50.08 234.58 170.43 <
4 2 2 0 261.61 383.96 95.75 o
4 2 2 2 69.74 49.77 66.23 <
4 3 1 -1 1284.32 1226.91 91.95 o
4 3 1 0 11524.80 11252.10 219.91 o
4 3 1 2 59.77 94.56 35.22 <
4 3 3 -2 58.11 86.14 52.45 <
4 3 3 -1 2383.45 2316.37 199.26 o
4 3 3 0 3833.44 4701.28 523.22 o
4 4 0 0 1225.19 1007.56 158.99 o
4 4 0 2 66.06 15.31 36.75 <
4 4 2 -2 112.79 83.46 60.87 <
4 4 2 -1 102.46 213.52 163.73 <
4 4 2 0 415.27 456.75 135.01 o
4 4 2 1 282.94 263.32 119.69 <
4 5 1 -2 96.85 39.05 50.54 <
4 5 1 0 23.77 157.98 85.21 <
4 5 1 2 94.93 114.86 72.36 <
4 5 3 -2 95.76 103.75 101.07 <
4 5 3 -1 36.24 261.39 258.51 <
4 5 3 0 8.14 12.45 429.89 <
4 6 0 0 8736.10 8809.67 357.91 o
4 6 0 1 543.55 586.04 110.12 o
4 6 0 2 32.95 24.89 58.58 <
4 6 2 -2 9.74 9.95 51.30 <
4 6 2 -1 1930.22 1825.73 158.05 o
4 6 2 0 5222.28 5276.20 227.19 o
4 6 2 2 90.81 280.63 129.40 <
4 7 1 -2 87.54 90.35 48.24 <
4 7 1 0 1379.01 1234.56 139.83 o
4 7 1 2 51.06 121.75 45.56 <
4 7 3 -2 161.30 79.25 242.73 <
4 7 3 -1 194.47 347.57 278.63 <
4 8 0 0 212.15 393.53 196.29 <
4 8 0 2 125.59 69.30 45.94 <
4 8 2 -2 104.72 62.79 56.28 <
4 8 2 -1 25.45 190.53 192.45 <
4 8 2 0 132.16 417.46 343.73 <
4 8 2 1 93.08 355.22 390.65 <
4 8 2 2 98.24 149.70 223.59 <
4 9 1 -2 9.10 87.29 122.89 <
4 9 1 -1 1023.40 1089.83 140.78 o
4 9 1 0 5914.55 5752.49 255.99 o
4 9 1 2 85.77 187.60 84.61 <
4 10 0 0 1595.85 1665.61 238.49 o
4 10 0 1 20.83 222.13 240.32 <
4 10 0 2 82.58 77.34 63.17 <
4 10 2 -2 154.90 95.33 147.40 <
4 10 2 0 683.48 409.85 479.75 <
4 11 1 -2 132.87 186.84 129.41 <
4 11 1 -1 42.69 263.30 335.11 <
4 11 1 0 306.42 257.57 428.97 <
4 11 1 1 166.45 468.21 589.81 <
4 12 0 1 483.05 427.07 570.70 <
5 0 1 -2 5.25 82.69 78.87 <
5 0 1 -1 820.72 872.40 197.27 o
5 0 1 0 5006.17 4483.00 431.33 o
5 0 1 2 68.63 191.04 132.85 <
5 1 0 0 222.81 188.63 248.95 <
5 1 0 2 99.83 124.43 94.18 <
5 1 2 -2 127.32 205.98 104.14 <
5 1 2 0 80.36 39.26 529.48 <
5 2 1 -2 114.88 137.45 104.14 <
5 2 1 -1 22.85 224.04 171.38 <
5 2 1 0 22.84 372.45 211.60 <
5 2 1 1 0.54 160.85 301.60 <
5 2 1 2 97.43 29.86 137.06 <
5 3 0 0 5781.96 4796.33 387.31 o
5 3 0 1 345.66 340.88 136.93 <
5 3 2 -2 3.86 11.87 128.25 <
5 4 1 -2 118.09 91.50 75.04 <
5 4 1 -1 7.08 96.70 270.00 <
5 4 1 0 493.03 496.01 209.70 <
5 4 1 1 44.25 294.90 320.75 <
5 4 1 2 84.18 87.29 287.91 <
5 5 0 0 9.82 297.77 205.85 <
5 5 0 1 12.23 62.23 172.34 <
5 5 0 2 125.00 51.69 69.68 <
5 6 1 -2 9.66 131.32 140.89 <
5 6 1 -1 703.96 605.20 260.47 <
5 6 1 0 4609.59 4505.47 610.51 o
loop_
_restr_angle_atom_site_label_1
_restr_angle_site_symmetry_1
_restr_angle_atom_site_label_2
_restr_angle_site_symmetry_2
_restr_angle_atom_site_label_3
_restr_angle_site_symmetry_3
_restr_angle_target
_restr_angle_target_weight_param
? ? ? ? ? ? ? ?
loop_
_restr_distance_atom_site_label_1
_restr_distance_site_symmetry_1
_restr_distance_atom_site_label_2
_restr_distance_site_symmetry_2
_restr_distance_target
_restr_distance_target_weight_param
B . O4 . 1.37 0.05
B . O3 2_5545 1.37 0.05
B . O2 . 1.37 0.05
loop_
_restr_equal_angle_atom_site_label_1
_restr_equal_angle_site_symmetry_1
_restr_equal_angle_atom_site_label_2
_restr_equal_angle_site_symmetry_2
_restr_equal_angle_atom_site_label_3
_restr_equal_angle_site_symmetry_3
_restr_equal_angle_class_class_id
_restr_equal_angle_class_target_weight_param
? ? ? ? ? ? ? ?
loop_
_restr_equal_distance_atom_site_label_1
_restr_equal_distance_site_symmetry_1
_restr_equal_distance_atom_site_label_2
_restr_equal_distance_site_symmetry_2
_restr_equal_distance_class_class_id
_restr_equal_distance_class_target_weight_param
? ? ? ? ? ?
loop_
_restr_equal_torsion_atom_site_label_1
_restr_equal_torsion_site_symmetry_1
_restr_equal_torsion_atom_site_label_2
_restr_equal_torsion_site_symmetry_2
_restr_equal_torsion_atom_site_label_3
_restr_equal_torsion_site_symmetry_3
_restr_equal_torsion_atom_site_label_4
_restr_equal_torsion_site_symmetry_4
_restr_equal_torsion_class_class_id
_restr_equal_torsion_class_target_weight_param
? ? ? ? ? ? ? ? ? ?
loop_
_restr_torsion_atom_site_label_1
_restr_torsion_site_symmetry_1
_restr_torsion_atom_site_label_2
_restr_torsion_site_symmetry_2
_restr_torsion_atom_site_label_3
_restr_torsion_site_symmetry_3
_restr_torsion_atom_site_label_4
_restr_torsion_site_symmetry_4
_restr_torsion_angle_target
_restr_torsion_weight_param
? ? ? ? ? ? ? ? ? ?
loop_
_twin_individual_id
_twin_individual_mass_fraction_refined
_twin_individual_twin_matrix_11
_twin_individual_twin_matrix_12
_twin_individual_twin_matrix_13
_twin_individual_twin_matrix_21
_twin_individual_twin_matrix_22
_twin_individual_twin_matrix_23
_twin_individual_twin_matrix_31
_twin_individual_twin_matrix_32
_twin_individual_twin_matrix_33
? ? ? ? ? ? ? ? ? ? ?
loop_
_twin_refln_datum_id
_twin_refln_individual_id
_twin_refln_index_h
_twin_refln_index_k
_twin_refln_index_l
_twin_refln_index_m_1
_twin_refln_F_squared_calc
_twin_refln_F_squared_meas
_twin_refln_F_squared_sigma
_twin_refln_include_status
? ? ? ? ? ? ? ? ? ?
loop_
_jana_atom_site_adp_c_label
_jana_atom_site_adp_c_type_symbol
_jana_atom_site_adp_c_111
_jana_atom_site_adp_c_112
_jana_atom_site_adp_c_113
_jana_atom_site_adp_c_122
_jana_atom_site_adp_c_123
_jana_atom_site_adp_c_133
_jana_atom_site_adp_c_222
_jana_atom_site_adp_c_223
_jana_atom_site_adp_c_233
_jana_atom_site_adp_c_333
? ? ? ? ? ? ? ? ? ? ? ?
loop_
_jana_atom_site_adp_d_label
_jana_atom_site_adp_d_type_symbol
_jana_atom_site_adp_d_1111
_jana_atom_site_adp_d_1112
_jana_atom_site_adp_d_1113
_jana_atom_site_adp_d_1122
_jana_atom_site_adp_d_1123
_jana_atom_site_adp_d_1133
_jana_atom_site_adp_d_1222
_jana_atom_site_adp_d_1223
_jana_atom_site_adp_d_1233
_jana_atom_site_adp_d_1333
_jana_atom_site_adp_d_2222
_jana_atom_site_adp_d_2223
_jana_atom_site_adp_d_2233
_jana_atom_site_adp_d_2333
_jana_atom_site_adp_d_3333
? ? ? ? ? ? ? ? ? ? ? ? ? ? ? ? ?
loop_
_jana_atom_site_adp_e_label
_jana_atom_site_adp_e_type_symbol
_jana_atom_site_adp_e_11111
_jana_atom_site_adp_e_11112
_jana_atom_site_adp_e_11113
_jana_atom_site_adp_e_11122
_jana_atom_site_adp_e_11123
_jana_atom_site_adp_e_11133
_jana_atom_site_adp_e_11222
_jana_atom_site_adp_e_11223
_jana_atom_site_adp_e_11233
_jana_atom_site_adp_e_11333
_jana_atom_site_adp_e_12222
_jana_atom_site_adp_e_12223
_jana_atom_site_adp_e_12233
_jana_atom_site_adp_e_12333
_jana_atom_site_adp_e_13333
_jana_atom_site_adp_e_22222
_jana_atom_site_adp_e_22223
_jana_atom_site_adp_e_22233
_jana_atom_site_adp_e_22333
_jana_atom_site_adp_e_23333
_jana_atom_site_adp_e_33333
? ? ? ? ? ? ? ? ? ? ? ? ? ? ? ? ? ? ? ? ? ? ?
loop_
_jana_atom_site_adp_f_label
_jana_atom_site_adp_f_type_symbol
_jana_atom_site_adp_f_111111
_jana_atom_site_adp_f_111112
_jana_atom_site_adp_f_111113
_jana_atom_site_adp_f_111122
_jana_atom_site_adp_f_111123
_jana_atom_site_adp_f_111133
_jana_atom_site_adp_f_111222
_jana_atom_site_adp_f_111223
_jana_atom_site_adp_f_111233
_jana_atom_site_adp_f_111333
_jana_atom_site_adp_f_112222
_jana_atom_site_adp_f_112223
_jana_atom_site_adp_f_112233
_jana_atom_site_adp_f_112333
_jana_atom_site_adp_f_113333
_jana_atom_site_adp_f_122222
_jana_atom_site_adp_f_122223
_jana_atom_site_adp_f_122233
_jana_atom_site_adp_f_122333
_jana_atom_site_adp_f_123333
_jana_atom_site_adp_f_133333
_jana_atom_site_adp_f_222222
_jana_atom_site_adp_f_222223
_jana_atom_site_adp_f_222233
_jana_atom_site_adp_f_222333
_jana_atom_site_adp_f_223333
_jana_atom_site_adp_f_233333
_jana_atom_site_adp_f_333333
? ? ? ? ? ? ? ? ? ? ? ? ? ? ? ? ? ? ? ? ? ? ? ? ? ? ? ? ? ?
loop_
_jana_atom_site_crenel_ortho_func_id
_jana_atom_site_crenel_ortho_func_c
_jana_atom_site_crenel_ortho_func_w
_jana_atom_site_crenel_ortho_func_eps
1 0.000000 0.500000 0.950000
loop_
_jana_atom_site_occ_fourier_absolute_site_label
_jana_atom_site_occ_fourier_absolute
? ?
loop_
_jana_atom_site_occ_legendre_atom_site_label
_jana_atom_site_occ_legendre_param_order
_jana_atom_site_occ_legendre_param_coeff
? ? ?
loop_
_jana_atom_site_occ_xharm_atom_site_label
_jana_atom_site_occ_xharm_param_order
_jana_atom_site_occ_xharm_param_coeff
? ? ?
loop_
_jana_atom_site_occ_crenel_ortho_atom_site_label
_jana_atom_site_occ_crenel_ortho_param_order
_jana_atom_site_occ_crenel_ortho_id
_jana_atom_site_occ_crenel_ortho_param_coeff
? ? ? ?
loop_
_jana_atom_site_displace_legendre_atom_site_label
_jana_atom_site_displace_legendre_axis
_jana_atom_site_displace_legendre_param_order
_jana_atom_site_displace_legendre_param_coeff
? ? ? ?
loop_
_jana_atom_site_displace_xharm_site_label
_jana_atom_site_displace_xharm_axis
_jana_atom_site_displace_xharm_param_order
_jana_atom_site_displace_xharm_param_coeff
? ? ? ?
loop_
_jana_atom_site_displace_crenel_ortho_atom_site_label
_jana_atom_site_displace_crenel_ortho_axis
_jana_atom_site_displace_crenel_ortho_id
_jana_atom_site_displace_crenel_ortho_param_order
_jana_atom_site_displace_crenel_ortho_param_coeff
? ? ? ? ?
loop_
_jana_atom_site_u_legendre_atom_site_label
_jana_atom_site_u_legendre_tens_elem
_jana_atom_site_u_legendre_param_order
_jana_atom_site_u_legendre_param_coeff
B U11 1 0
B U22 1 0
B U33 1 0
B U12 1 0
B U13 1 0
B U23 1 0
B U11 2 0.0225(17)
B U22 2 0.0283(18)
B U33 2 0.0138(14)
B U12 2 0
B U13 2 0
B U23 2 0
loop_
_jana_atom_site_u_xharm_atom_site_label
_jana_atom_site_u_xharm_tens_elem
_jana_atom_site_u_xharm_param_order
_jana_atom_site_u_xharm_param_coeff
? ? ? ?
loop_
_jana_atom_site_u_crenel_ortho_atom_site_label
_jana_atom_site_u_crenel_ortho_tens_elem
_jana_atom_site_u_crenel_ortho_id
_jana_atom_site_u_crenel_ortho_param_order
_jana_atom_site_u_crenel_ortho_param_coeff
? ? ? ? ?
loop_
_jana_atom_site_adp_c_fourier_atom_site_label
_jana_atom_site_adp_c_fourier_tens_elem
_jana_atom_site_adp_c_fourier_wave_vector_seq_id
_jana_atom_site_adp_c_fourier_param_cos
_jana_atom_site_adp_c_fourier_param_sin
? ? ? ? ?
loop_
_jana_atom_site_adp_d_fourier_atom_site_label
_jana_atom_site_adp_d_fourier_tens_elem
_jana_atom_site_adp_d_fourier_wave_vector_seq_id
_jana_atom_site_adp_d_fourier_param_cos
_jana_atom_site_adp_d_fourier_param_sin
? ? ? ? ?
loop_
_jana_atom_site_adp_e_fourier_atom_site_label
_jana_atom_site_adp_e_fourier_tens_elem
_jana_atom_site_adp_e_fourier_wave_vector_seq_id
_jana_atom_site_adp_e_fourier_param_cos
_jana_atom_site_adp_e_fourier_param_sin
? ? ? ? ?
loop_
_jana_atom_site_adp_f_fourier_atom_site_label
_jana_atom_site_adp_f_fourier_tens_elem
_jana_atom_site_adp_f_fourier_wave_vector_seq_id
_jana_atom_site_adp_f_fourier_param_cos
_jana_atom_site_adp_f_fourier_param_sin
? ? ? ? ?

_cod_database_fobs_code 2108691
