#------------------------------------------------------------------------------
#$Date: 2016-03-24 00:12:42 +0200 (Thu, 24 Mar 2016) $
#$Revision: 179527 $
#$URL: svn://www.crystallography.net/cod/cif/4/34/24/4342456.cif $
#------------------------------------------------------------------------------
#
# This file is available in the Crystallography Open Database (COD),
# http://www.crystallography.net/
#
# All data on this site have been placed in the public domain by the
# contributors.
#
data_4342456
loop_
_publ_author_name
'Daub, Michael'
'Scherer, Harald'
'Hillebrecht, Harald'
_publ_section_title
;
 Synthesis, Crystal Structure, and Spectroscopy of the Mixed-Valent
 Boroseleniteselenate B2Se3O10.
;
_journal_issue                   5
_journal_name_full               'Inorganic chemistry'
_journal_page_first              2325
_journal_paper_doi               10.1021/ic502916j
_journal_volume                  54
_journal_year                    2015
_chemical_formula_sum            'B2 O10 Se3'
_chemical_formula_weight         418.50
_chemical_name_systematic
;
 ?
;
_space_group_crystal_system      monoclinic
_space_group_IT_number           14
_space_group_name_Hall           '-P 2ybc'
_space_group_name_H-M_alt        'P 1 21/c 1'
_symmetry_space_group_name_Hall  '-P 2ybc'
_symmetry_space_group_name_H-M   'P 1 21/c 1'
_audit_creation_method           SHELXL-2013
_cell_angle_alpha                90
_cell_angle_beta                 94.922(2)
_cell_angle_gamma                90
_cell_formula_units_Z            4
_cell_length_a                   4.3466(2)
_cell_length_b                   7.9237(4)
_cell_length_c                   22.1460(9)
_cell_measurement_reflns_used    8107
_cell_measurement_temperature    150(2)
_cell_measurement_theta_max      30
_cell_measurement_theta_min      3
_cell_volume                     759.92(6)
_computing_cell_refinement       'Bruker SAINT'
_computing_data_collection       'Bruker APEX2'
_computing_data_reduction        'Bruker SAINT'
_computing_molecular_graphics    'Diamond (Crystal impact, 2005)'
_computing_publication_material  'SHELXL-2013 (Sheldrick, 2013)'
_computing_structure_refinement  'SHELXL-2013 (Sheldrick, 2013)'
_computing_structure_solution    'SHELXL-2013 (Sheldrick, 2013)'
_diffrn_ambient_temperature      150(2)
_diffrn_measured_fraction_theta_full 1.007
_diffrn_measured_fraction_theta_max 1.007
_diffrn_measurement_device_type  'Bruker APEX-II CCD'
_diffrn_measurement_method       'omega and phi scans'
_diffrn_radiation_monochromator  graphite
_diffrn_radiation_source         microsource
_diffrn_radiation_type           Mo_K\a
_diffrn_radiation_wavelength     0.71073
_diffrn_reflns_av_R_equivalents  0.0280
_diffrn_reflns_av_unetI/netI     0.0279
_diffrn_reflns_Laue_measured_fraction_full 1.007
_diffrn_reflns_Laue_measured_fraction_max 1.007
_diffrn_reflns_limit_h_max       6
_diffrn_reflns_limit_h_min       -6
_diffrn_reflns_limit_k_max       9
_diffrn_reflns_limit_k_min       -11
_diffrn_reflns_limit_l_max       31
_diffrn_reflns_limit_l_min       -31
_diffrn_reflns_number            8107
_diffrn_reflns_point_group_measured_fraction_full 1.007
_diffrn_reflns_point_group_measured_fraction_max 1.007
_diffrn_reflns_theta_full        25.242
_diffrn_reflns_theta_max         29.991
_diffrn_reflns_theta_min         1.846
_exptl_absorpt_coefficient_mu    14.564
_exptl_absorpt_correction_T_max  0.765
_exptl_absorpt_correction_T_min  0.334
_exptl_absorpt_correction_type   multi-scan
_exptl_crystal_colour            colourless
_exptl_crystal_density_diffrn    3.658
_exptl_crystal_description       irregular
_exptl_crystal_F_000             768
_exptl_crystal_size_max          0.2
_exptl_crystal_size_mid          0.15
_exptl_crystal_size_min          0.1
_refine_diff_density_max         2.474
_refine_diff_density_min         -2.814
_refine_diff_density_rms         0.669
_refine_ls_extinction_coef       0.0015(3)
_refine_ls_extinction_expression Fc^*^=kFc[1+0.001xFc^2^\l^3^/sin(2\q)]^-1/4^
_refine_ls_extinction_method     SHELXL
_refine_ls_goodness_of_fit_ref   1.280
_refine_ls_hydrogen_treatment    undef
_refine_ls_matrix_type           full
_refine_ls_number_parameters     139
_refine_ls_number_reflns         2270
_refine_ls_number_restraints     0
_refine_ls_restrained_S_all      1.280
_refine_ls_R_factor_all          0.0427
_refine_ls_R_factor_gt           0.0361
_refine_ls_shift/su_max          0.001
_refine_ls_shift/su_mean         0.000
_refine_ls_structure_factor_coef Fsqd
_refine_ls_weighting_details
'w=1/[\s^2^(Fo^2^)+16.0731P] where P=(Fo^2^+2Fc^2^)/3'
_refine_ls_weighting_scheme      calc
_refine_ls_wR_factor_gt          0.0915
_refine_ls_wR_factor_ref         0.0965
_reflns_Friedel_coverage         0.000
_reflns_number_gt                2037
_reflns_number_total             2270
_reflns_threshold_expression     'I > 2\s(I)'
_cod_data_source_file            ic502916j_si_002.cif
_cod_data_source_block           B2Se3O10
_cod_depositor_comments          'Adding full bibliography for 4342456.cif.'
_cod_database_code               4342456
#BEGIN Tags that were not found in dictionaries:
_shelx_space_group_comment
;
The symmetry employed for this shelxl refinement is uniquely defined
by the following loop, which should always be used as a source of
symmetry information in preference to the above space-group names.
They are only intended as comments.
;
_shelxl_version_number           2013-4
_shelx_res_file
;
TITL HH_MD_B2Se3O10_0m in P2(1)/c
CELL 0.71073   4.3466   7.9237  22.1460  90.000  94.922  90.000
ZERR    4.00   0.0002   0.0004   0.0009   0.000   0.002   0.000
LATT  1
SYMM -X, 0.5+Y, 0.5-Z
SFAC O B SE
UNIT 40 8 12
TEMP -123.160

L.S. 9
TWIN -1 0 0 0 -1 0 1 0 1
OMIT 0 60
ACTA
BOND
FMAP 2
PLAN 20

WGHT    0.000000   16.073099
EXTI    0.001514
BASF   0.01356
FVAR       0.11332
MOLE   1
SE1   3    0.078291    0.967213    0.356671    11.00000    0.00698    0.00544 =
         0.00598   -0.00126    0.00037   -0.00022
SE2   3    0.483270    1.456005    0.312775    11.00000    0.00654    0.00514 =
         0.00422   -0.00050    0.00001    0.00055
SE3   3   -0.208477    0.722819    0.504712    11.00000    0.00580    0.00474 =
         0.00483   -0.00010   -0.00020    0.00022
O11   1    0.234070    1.140016    0.339950    11.00000    0.01377    0.00362 =
         0.02555    0.00422    0.00331   -0.00429
O12   1   -0.027722    0.948687    0.423876     1.01276    0.01975    0.01703 =
         0.00671   -0.00210    0.00672   -0.00052
O13   1    0.323731    0.803866    0.347250    11.00000    0.00780    0.00891 =
         0.00648    0.00109    0.00188    0.00192
O14   1   -0.222816    0.934960    0.303762    11.00000    0.00866    0.00665 =
         0.00685    0.00200   -0.00254    0.00004
O21   1    0.641653    1.336577    0.259652    11.00000    0.01048    0.00761 =
         0.00466   -0.00325    0.00049    0.00306
O22   1    0.722613    1.379666    0.370992    11.00000    0.00919    0.00729 =
         0.00203    0.00073   -0.00032    0.00146
O23   1    0.686017    1.638291    0.300746    11.00000    0.00812    0.00783 =
         0.01008    0.00113    0.00242    0.00043
O31   1    0.174812    0.700404    0.525326    11.00000    0.00607    0.00571 =
         0.00747    0.00306   -0.00268   -0.00146
O32   1   -0.235019    0.601101    0.441313    11.00000    0.01067    0.00641 =
         0.00502   -0.00239    0.00071   -0.00186
O33   1   -0.338502    0.586915    0.557172    11.00000    0.00702    0.00943 =
         0.00832    0.00098    0.00060   -0.00160
B1    2    0.538313    0.802813    0.299051    11.00000    0.00683    0.00540 =
         0.00357    0.00197    0.00048   -0.00065
B2    2   -0.331514    0.424019    0.433117    11.00000    0.00719    0.00688 =
         0.00573   -0.00222   -0.00085    0.00120
MOLE   2
HKLF 4

REM  HH_MD_B2Se3O10_0m in P2(1)/c
REM R1 =  0.0361 for    2037 Fo > 4sig(Fo)  and  0.0427 for all    2270 data
REM    139 parameters refined using      0 restraints

END

WGHT      0.0000     16.0778

REM Highest difference peak  2.474,  deepest hole -2.814,  1-sigma level  0.669
Q1    1   0.3241  0.7260  0.4922  11.00000  0.05    2.47
Q2    1  -0.3585  0.7943  0.5040  11.00000  0.05    2.36
Q3    1  -0.3251  0.5664  0.5079  11.00000  0.05    2.36
Q4    1  -0.3570  0.7211  0.5076  11.00000  0.05    2.35
Q5    1   0.3231  0.9225  0.4926  11.00000  0.05    2.29
Q6    1  -0.3295  0.4592  0.5097  11.00000  0.05    2.27
Q7    1   0.6453  1.4613  0.3087  11.00000  0.05    2.19
Q8    1  -0.3327  0.9555  0.5085  11.00000  0.05    2.15
Q9    1   0.3298  0.8187  0.4912  11.00000  0.05    2.12
Q10   1   0.1926  1.4063  0.3522  11.00000  0.05    1.98
Q11   1   0.7640  1.1685  0.3329  11.00000  0.05    1.97
Q12   1  -0.4150  0.9369  0.3085  11.00000  0.05    1.97
Q13   1   0.9654  1.7211  0.3337  11.00000  0.05    1.92
Q14   1  -0.2406  0.9700  0.3312  11.00000  0.05    1.91
Q15   1   0.9726  1.5594  0.3376  11.00000  0.05    1.91
Q16   1   0.9873  1.4122  0.3517  11.00000  0.05    1.89
Q17   1  -0.0304  0.7951  0.3360  11.00000  0.05    1.87
Q18   1  -0.0790  0.9643  0.3605  11.00000  0.05    1.84
Q19   1  -0.4242  0.6565  0.3799  11.00000  0.05    1.81
Q20   1   0.5829  1.0768  0.3786  11.00000  0.05    1.79
;
_shelx_res_checksum              90845
_shelx_hkl_file
;
   3   0   0   97.89    3.38
   3   0   0   93.54    3.29
  -3   0   0   97.22    3.47
   4   0   0  100.20    3.49
  -4   0   0   97.44    3.70
  -6   0   0    1.93    0.93
  -7   0   0  144.06    5.87
   8   0   0    9.64    1.58
  -8   0   0    7.80    1.67
   0  -1   0    0.03    0.08
   0   1   0    0.03    0.08
   1  -1   0  120.45    4.12
   1  -1   0  119.34    4.20
  -1   1   0  123.14    4.10
   2  -1   0   16.65    0.84
   2  -1   0   15.44    0.67
   3  -1   0   72.65    2.73
   3  -1   0   79.89    2.94
  -3  -1   0   77.49    2.84
  -4  -1   0   89.85    3.49
   4  -1   0   94.21    3.37
  -4   1   0   92.76    3.51
  -5  -1   0   17.04    1.34
  -5   1   0   18.46    1.42
  -6  -1   0   16.82    1.64
  -6   1   0   17.06    1.54
  -7  -1   0    4.55    1.27
  -7   1   0    2.87    1.23
  -8  -1   0   20.33    2.31
   8  -1   0   22.26    2.30
  -8   1   0   16.68    2.05
   0  -2   0  115.13    3.99
   0   2   0  114.39    3.91
   0   2   0  110.97    3.98
   1  -2   0    0.20    0.34
   1  -2   0   -0.06    0.21
  -1   2   0    0.17    0.20
  -1   2   0    0.19    0.34
   2  -2   0  547.32   19.18
   2  -2   0  541.16   18.97
  -2   2   0  561.37   18.83
  -2   2   0  552.00   18.86
  -2   2   0  596.59   15.30
  -3  -2   0    0.89    0.41
   3  -2   0    0.92    0.34
   3  -2   0    0.42    0.53
  -3   2   0    0.25    0.25
  -3   2   0    0.41    0.41
  -4  -2   0    1.15    0.51
   4  -2   0    0.80    0.40
  -4   2   0    1.05    0.55
  -5  -2   0  184.33    6.63
  -5   2   0  184.44    6.66
  -6  -2   0    3.57    1.00
  -6   2   0    2.63    1.00
  -7  -2   0   10.67    1.59
  -7   2   0    6.47    1.41
  -8  -2   0    4.53    1.52
   8  -2   0    6.20    1.54
  -8   2   0    5.27    1.54
   0  -3   0    0.00    0.35
   0   3   0    0.05    0.23
   0   3   0    0.76    0.36
   1  -3   0   18.56    0.91
   1  -3   0   15.71    1.07
  -1   3   0   22.75    1.16
  -1   3   0   18.80    0.88
   2  -3   0   95.27    3.72
   2  -3   0   94.06    3.48
  -2   3   0   98.11    2.87
   3  -3   0    0.00    0.39
  -3  -3   0    0.49    0.39
  -3   3   0    0.29    0.41
  -3   3   0   -0.53    0.33
  -4  -3   0    0.64    0.51
  -4   3   0    0.01    0.46
  -4   3   0    0.90    0.30
  -5  -3   0    1.63    0.71
  -5   3   0    1.06    0.74
  -6  -3   0   28.88    1.97
  -6   3   0   25.72    1.97
   7  -3   0    7.92    1.47
  -7  -3   0    6.22    1.40
  -7   3   0    4.58    1.34
  -8  -3   0    1.96    1.42
   8  -3   0    3.14    1.55
  -8   3   0    1.06    1.39
   0  -4   0  143.69    5.15
   0   4   0  139.19    5.11
   0   4   0  141.07    4.96
   1  -4   0   37.85    1.86
   1  -4   0   36.70    1.63
  -1  -4   0   38.45    1.22
  -1   4   0   37.51    1.85
   1   4   0   40.09    1.59
  -1   4   0   40.22    1.61
   2  -4   0   51.65    2.15
   2  -4   0   52.98    2.45
  -2   4   0   50.22    1.76
  -2   4   0   53.03    2.40
  -3  -4   0   95.23    3.40
   3  -4   0   91.65    3.60
  -3   4   0   94.48    3.44
  -3   4   0   94.84    2.97
  -4  -4   0    7.25    0.80
  -4   4   0    7.84    0.87
  -4   4   0    7.16    0.65
  -5  -4   0    1.23    0.70
  -5   4   0    0.45    0.75
  -5   4   0    0.25    0.26
  -6  -4   0    2.80    0.98
  -6   4   0    1.08    0.92
   7  -4   0   43.98    2.84
  -7  -4   0   40.80    2.69
  -7   4   0   39.69    2.67
   0  -5   0    0.64    0.74
   0  -5   0    0.01    0.30
   0   5   0    1.18    0.38
   0   5   0    0.12    0.51
   1  -5   0   18.50    0.95
   1  -5   0   17.74    1.10
  -1  -5   0   17.10    0.80
  -1   5   0   17.07    1.37
   1   5   0   17.72    1.11
  -1   5   0   18.76    1.11
   1   5   0   16.98    0.92
   2  -5   0   27.38    1.27
   2  -5   0   27.69    1.49
   2   5   0   29.45    1.26
   2   5   0   30.50    1.31
  -2   5   0   27.42    1.27
  -2   5   0   27.57    1.21
  -2   5   0   27.59    1.79
   3  -5   0   45.60    2.10
  -3   5   0   44.22    1.90
  -3   5   0   43.95    1.72
  -4   5   0  110.25    3.66
  -4   5   0  120.39    4.31
   5  -5   0    2.03    0.84
  -5   5   0    0.45    0.44
  -5   5   0    0.58    0.73
   6  -5   0    1.67    1.09
  -6   5   0   -0.21    0.97
   7  -5   0   16.67    1.99
  -7   5   0   14.98    1.82
   0  -6   0   11.38    0.79
   0   6   0   10.63    1.20
   0   6   0   10.92    0.87
  -1  -6   0    3.87    0.50
   1  -6   0    2.78    0.56
   1   6   0    3.22    0.68
  -1   6   0    2.74    0.86
   2  -6   0   28.07    1.60
   2  -6   0   27.09    1.37
  -2   6   0   28.48    1.45
   2   6   0   28.99    1.46
  -2   6   0   27.58    1.29
   3  -6   0   11.31    1.16
   3  -6   0    9.52    0.92
  -3   6   0   10.01    0.94
   3   6   0    9.57    0.75
  -3   6   0    9.02    0.90
   4  -6   0   12.17    1.23
  -4   6   0   11.59    1.14
  -4   6   0   11.25    1.03
   5  -6   0   12.61    1.47
  -5   6   0   12.33    1.41
  -5   6   0   11.02    1.04
   6  -6   0    3.93    1.23
  -6   6   0    1.68    1.14
   7  -6   0    2.36    1.49
  -7   6   0   -0.38    1.33
   0  -7   0    0.68    0.43
   0   7   0    0.24    0.74
  -1  -7   0   60.21    2.06
   1  -7   0   58.46    2.15
  -1   7   0   58.42    2.92
   1   7   0   58.81    2.72
   2  -7   0   57.83    2.26
  -2   7   0   59.11    2.19
  -3   7   0    6.46    0.85
  -4   7   0   28.00    1.66
  -4   7   0   31.53    1.92
   5  -7   0    1.53    0.99
  -5   7   0    0.20    0.99
  -5   7   0   -0.49    0.62
   6  -7   0   23.61    2.26
  -6   7   0   20.80    2.24
  -6   7   0   22.25    1.06
   7  -7   0    5.15    1.68
  -7   7   0    2.84    1.65
   0  -8   0   31.61    1.41
   0   8   0   32.59    2.15
   1  -8   0   18.64    1.21
  -1  -8   0   18.31    1.07
  -1   8   0   17.50    1.75
   2  -8   0   37.51    1.83
  -2   8   0   42.17    1.81
  -3   8   0    6.52    0.95
  -4   8   0    0.20    0.79
  -5   8   0    4.62    0.94
  -6   8   0    7.21    0.83
   0  -9   0    1.83    0.56
   1  -9   0    2.63    0.71
  -1  -9   0    3.18    0.60
   2  -9   0   25.95    1.63
  -3   9   0   22.35    1.53
  -4   9   0   18.85    1.59
  -5   9   0    3.60    0.98
  -6   9   0    3.26    0.83
   0 -10   0   42.86    1.86
   1 -10   0    9.28    1.05
  -1 -10   0    9.63    0.85
   2 -10   0   47.53    2.26
  -3  10   0    9.48    1.15
  -4  10   0    6.84    1.11
  -5  10   0   15.22    1.45
   0 -11   0    1.09    0.65
   1 -11   0    2.55    0.85
   2 -11   0    8.01    1.18
   3 -11   0    8.56    1.34
  -4  11   0   17.31    1.57
  -5  11   0   -0.41    0.89
   0 -12   0  110.32    3.73
   1 -12   0    0.34    0.83
   2 -12   0   14.88    1.49
   3 -12   0   24.74    2.07
  -4  12   0   16.71    1.65
   0 -13   0    0.35    0.66
   1 -13   0   14.82    1.37
   2 -13   0    2.66    1.12
   3 -13   0   -0.34    1.15
   1 -14   0    1.92    0.97
   2 -14   0   41.70    2.43
  -8   0   1    3.29    1.42
   8   0  -1    3.99    1.35
  -7   0   1    1.66    1.13
  -6   0   1    0.55    0.89
  -5   0   1   -0.37    0.64
  -4   0   1   -0.33    0.47
   4   0  -1    0.06    0.25
   3   0  -1   -0.06    0.14
   3   0  -1    0.03    0.23
  -3   0   1   -0.04    0.37
   2   0   1   -0.02    0.09
   2   0   1   -0.12    0.14
   3   0   1   -0.06    0.17
  -3   0  -1    0.20    0.36
   3   0   1    0.05    0.30
  -4   0  -1   -0.01    0.47
   4   0   1    0.05    0.27
  -5   0  -1    0.89    0.71
  -6   0  -1    1.20    0.87
  -7   0  -1    1.27    1.13
  -8   0  -1    2.34    1.38
  -8  -1   1    6.62    1.60
   8  -1  -1    8.21    1.63
  -8   1   1    8.69    1.67
   8   1  -1   10.34    1.57
  -7  -1   1    9.20    1.45
  -7   1   1   10.23    1.56
  -6  -1   1   58.33    2.87
  -6   1   1   59.98    2.93
  -5  -1   1   -0.15    0.55
  -5   1   1    0.01    0.66
  -4  -1   1  186.64    6.67
   4  -1  -1  197.16    6.67
  -4   1   1  191.35    6.70
  -3  -1   1    0.27    0.37
   3  -1  -1   -0.14    0.39
   3  -1  -1    0.24    0.24
  -3   1   1    0.49    0.41
   2  -1  -1    0.57    0.18
   2  -1  -1    0.47    0.28
   1  -1  -1   53.31    1.90
   1  -1  -1   53.76    1.96
  -1   1   1   54.87    1.87
   0  -1   1   13.45    0.58
   0  -1  -1   13.89    0.57
   0   1  -1   14.61    0.58
   0   1   1   13.54    0.56
   1  -1   1  512.53   17.88
   1  -1   1  530.58   17.80
  -1   1  -1  530.20   17.82
   2  -1   1  142.37    4.96
   2  -1   1  139.52    4.81
  -3  -1  -1   53.72    2.09
   3  -1   1   50.62    1.96
   3  -1   1   53.62    2.19
  -3   1  -1   53.18    2.10
  -3   1  -1   53.27    1.49
   4  -1   1   28.62    1.28
  -4  -1  -1   27.94    1.47
   4   1   1   29.58    1.11
  -4   1  -1   27.83    1.48
  -5  -1  -1    3.16    0.78
  -5   1  -1    2.98    0.81
  -6  -1  -1    7.12    1.16
  -6   1  -1    6.13    1.13
  -7  -1  -1   14.65    1.71
  -7   1  -1   13.22    1.66
   8  -1   1    4.28    1.35
  -8  -1  -1    1.81    1.38
  -8   1  -1    2.50    1.35
   8  -2  -1    5.98    1.61
  -8  -2   1    7.84    1.62
   8   2  -1   10.49    1.50
  -8   2   1    5.36    1.56
  -7  -2   1    8.68    1.47
  -7   2   1    7.77    1.46
  -6  -2   1    7.43    1.14
  -6   2   1    6.16    1.13
  -5  -2   1    6.66    0.94
  -5   2   1    6.06    0.91
   4  -2  -1    2.76    0.50
  -4  -2   1    2.24    0.57
  -4   2   1    1.76    0.59
  -3  -2   1    2.30    0.45
   3  -2  -1    2.02    0.40
   3  -2  -1    3.62    0.68
  -3   2   1    2.73    0.29
  -3   2   1    2.75    0.46
   2  -2  -1   62.09    2.48
   2  -2  -1   61.01    2.30
  -2   2   1   61.76    2.21
  -2   2   1   61.96    2.28
  -2   2   1   65.86    1.91
   1  -2  -1    0.45    0.25
   1  -2  -1    0.51    0.34
  -1   2   1    0.65    0.22
  -1   2   1    0.04    0.33
   0  -2  -1  285.19    9.56
   0  -2   1  283.91    9.57
   0   2   1  280.77    9.50
   0   2  -1  281.48    9.70
   0   2   1  277.11    9.55
   0   2  -1  280.01    9.56
   1  -2   1   88.56    3.32
   1  -2   1   90.94    3.17
  -1   2  -1   91.44    3.33
  -1   2  -1   89.58    3.15
   2  -2   1   37.34    1.47
   2  -2   1   37.99    1.69
  -2   2  -1   37.14    1.39
  -2   2  -1   37.35    1.53
  -2   2  -1   38.34    1.24
   3  -2   1   10.07    0.98
  -3  -2  -1    9.84    0.77
   3  -2   1    9.42    0.67
  -3   2  -1    9.21    0.59
  -3   2  -1   10.05    0.73
  -4  -2  -1    4.21    0.68
   4  -2   1    4.79    0.60
  -4   2  -1    4.22    0.65
  -5  -2  -1   28.20    1.66
  -5   2  -1   28.28    1.74
  -6  -2  -1    1.07    0.88
  -6   2  -1    0.43    0.94
  -7  -2  -1   14.82    1.78
  -7   2  -1   12.60    1.63
  -8  -2  -1    9.66    1.82
   8  -2   1   11.38    1.79
  -8   2  -1    9.96    1.75
  -8  -3   1    8.59    1.69
   8  -3  -1    9.80    1.84
  -8   3   1    8.09    1.71
  -7  -3   1    1.57    1.12
   7  -3  -1    1.65    1.23
  -7   3   1    0.32    1.13
  -6  -3   1   26.31    1.94
  -6   3   1   25.56    1.95
  -5  -3   1    2.14    0.72
  -5   3   1    0.96    0.75
  -4  -3   1   23.72    1.31
  -4   3   1   24.33    0.92
  -4   3   1   23.43    1.37
   3  -3  -1   40.07    1.76
  -3  -3   1   41.40    1.69
  -3   3   1   41.47    1.46
  -3   3   1   41.06    1.74
   2  -3  -1  201.74    7.11
   2  -3  -1  207.32    7.33
  -2   3   1  205.39    5.79
   1  -3  -1  318.42   10.72
   1  -3  -1  315.37   10.56
   1   3  -1  300.89   10.39
  -1   3   1  324.53   10.56
  -1   3   1  302.23   10.69
   1   3  -1  299.00   10.43
   0  -3   1  161.92    5.77
   0  -3  -1  166.50    5.75
   0   3  -1  165.03    5.76
   0   3   1  161.33    5.74
   0   3   1  164.19    5.65
   0   3  -1  162.24    5.62
   1  -3   1   43.97    1.92
  -1   3  -1   45.43    1.70
  -1   3  -1   48.42    1.96
   1   3   1   39.26    1.60
   2  -3   1   20.39    1.05
   2  -3   1   22.17    1.33
  -2   3  -1   22.71    0.91
  -2   3  -1   21.40    1.25
  -3  -3  -1   24.10    1.17
   3  -3   1   25.12    1.23
  -3   3  -1   24.11    1.20
  -3   3  -1   21.97    1.03
  -4  -3  -1    9.70    0.90
  -4   3  -1    9.46    0.60
  -4   3  -1    8.39    0.94
  -5  -3  -1   16.67    1.33
  -5   3  -1   14.11    1.36
  -6  -3  -1    4.30    1.03
  -6   3  -1    2.77    1.05
  -7  -3  -1   29.57    2.43
  -7   3  -1   23.88    2.28
  -8  -3  -1    9.76    1.86
   8  -3   1   11.80    1.86
  -8   3  -1    8.40    1.68
   7  -4  -1   27.25    2.52
  -7  -4   1   25.25    2.28
  -7   4   1   21.71    2.17
   6  -4  -1   12.20    1.48
  -6  -4   1   12.80    1.51
  -6   4   1   12.21    1.43
  -5  -4   1   23.80    1.57
  -5   4   1   24.37    1.63
  -5   4   1   21.60    0.86
  -4  -4   1   70.38    2.81
  -4   4   1   72.56    2.30
  -4   4   1   72.05    2.87
  -3  -4   1    2.87    0.49
   3  -4  -1    2.51    0.61
  -3   4   1    2.51    0.53
  -3   4   1    1.63    0.48
   2  -4  -1  106.85    4.21
   2  -4  -1  108.06    3.96
  -2   4   1  107.19    3.23
  -2   4   1  104.38    4.12
  -1  -4   1   10.91    0.52
   1  -4  -1    9.20    0.75
   1  -4  -1    9.13    0.95
  -1   4   1    9.35    0.68
   1   4  -1    9.68    0.68
  -1   4   1    9.16    0.93
   0  -4   1  242.16    8.54
   0  -4  -1  252.60    8.54
   0   4   1  244.38    8.37
   0   4  -1  243.43    8.52
   0   4  -1  244.93    8.34
   0   4   1  233.90    8.50
   1  -4   1    3.86    0.69
  -1  -4  -1    4.08    0.36
   1  -4   1    4.08    0.52
   1   4   1    4.29    0.52
  -1   4  -1    3.96    0.70
   1   4   1    3.81    0.53
  -1   4  -1    3.44    0.44
   2  -4   1   70.12    3.03
   2  -4   1   69.60    2.73
  -2   4  -1   70.36    3.01
  -2   4  -1   69.84    2.26
  -3  -4  -1  189.06    6.51
   3  -4   1  192.41    6.79
  -3   4  -1  191.88    5.55
  -3   4  -1  187.56    6.52
  -4  -4  -1    0.82    0.53
  -4   4  -1    0.78    0.46
  -4   4  -1    0.69    0.50
  -5  -4  -1   50.99    2.41
  -5   4  -1   50.68    2.35
  -5   4  -1   47.17    1.60
  -6  -4  -1   13.73    1.55
  -6   4  -1   10.56    1.36
   7  -4   1   22.78    2.19
  -7  -4  -1   21.90    2.16
  -7   4  -1   17.82    1.90
   7  -5  -1    5.12    1.57
  -7   5   1    3.69    1.42
   6  -5  -1   11.07    1.50
  -6   5   1    7.59    1.32
   5  -5  -1   31.49    1.93
  -5   5   1   29.21    1.31
  -5   5   1   30.55    1.87
   4  -5  -1   41.00    1.99
  -4   5   1   42.04    1.98
  -4   5   1   44.02    1.70
   3  -5  -1   16.80    1.09
   3  -5  -1   17.89    1.27
  -3   5   1   16.33    1.01
  -3   5   1   18.01    1.07
   2  -5  -1    5.66    0.62
   2  -5  -1    4.55    0.71
  -2   5   1    5.39    0.63
   2   5  -1    6.01    0.60
  -2   5   1    5.02    0.92
  -2   5   1    5.65    0.60
   2   5  -1    4.83    0.56
   1  -5  -1    6.98    0.83
  -1  -5   1    7.32    0.56
   1  -5  -1    8.07    0.73
  -1   5   1    8.67    1.04
   1   5  -1    7.48    0.62
   1   5  -1    8.36    0.82
   0  -5   1    3.71    0.86
   0  -5   1    2.34    0.40
   0  -5  -1    2.86    0.43
   0   5   1    2.57    0.47
   0   5  -1    2.50    0.45
   0   5   1    3.47    0.71
   0   5  -1    2.42    0.63
  -1  -5  -1    6.83    0.56
   1  -5   1    6.98    0.77
  -1   5  -1    3.55    0.80
   2  -5   1   55.59    2.13
   2  -5   1   56.09    2.37
   2   5   1   58.37    2.16
  -2   5  -1   57.31    2.13
   2   5   1   53.37    2.18
  -2   5  -1   55.05    1.95
  -2   5  -1   52.48    2.66
   3  -5   1  121.49    4.54
  -3  -5  -1  119.94    4.22
  -3   5  -1  118.02    4.24
  -3   5  -1  114.86    3.69
  -4  -5  -1    0.31    0.53
  -4   5  -1   -0.92    0.48
  -4   5  -1   -0.68    0.54
  -5  -5  -1   46.22    2.30
  -5   5  -1   44.37    2.26
  -5   5  -1   42.36    1.70
   6  -5   1    1.07    1.05
  -6   5  -1    0.29    1.00
   7  -5   1    3.44    1.45
  -7   5  -1    0.03    1.16
   7  -6  -1   27.89    2.60
  -7   6   1   22.70    2.43
   6  -6  -1   11.85    1.60
  -6   6   1   10.36    1.51
   5  -6  -1    6.27    1.08
  -5   6   1    5.45    0.76
  -5   6   1    5.81    1.09
   4  -6  -1    9.23    1.02
  -4   6   1    8.81    1.01
  -4   6   1    8.49    0.91
   3  -6  -1   30.65    1.56
   3  -6  -1   30.94    1.79
   3   6  -1   31.86    1.36
  -3   6   1   28.89    1.43
  -3   6   1   31.05    1.58
   2  -6  -1  198.68    7.08
   2  -6  -1  210.70    7.53
   2  -6  -1  217.54    6.18
   2   6  -1  211.53    7.36
  -2   6   1  210.39    7.22
  -2   6   1  203.58    6.10
  -1  -6   1   40.64    1.50
   1  -6  -1   41.53    1.63
   1   6  -1   43.39    2.03
  -1   6   1   40.17    2.20
   0  -6   1  395.85   11.04
   0  -6  -1  392.51   11.04
   0   6   1  390.76   13.58
   0   6   1  399.65   13.85
   0   6  -1  396.80   13.86
   0   6  -1  404.61   13.58
   1  -6   1  135.82    4.06
  -1  -6  -1  132.22    3.97
   1   6   1  131.12    5.02
  -1   6  -1  136.10    5.28
   2  -6   1   14.69    1.04
   2  -6   1   14.43    1.15
  -2   6  -1   13.02    0.98
  -2   6  -1   14.12    0.96
   2   6   1   15.17    1.07
   3  -6   1   30.89    1.78
   3  -6   1   31.80    1.56
  -3   6  -1   29.48    1.46
  -3   6  -1   32.31    1.57
   3   6   1   32.84    1.46
   4  -6   1   29.68    1.67
  -4   6  -1   28.76    1.67
  -4   6  -1   29.51    1.59
   5  -6   1  116.60    4.50
  -5   6  -1  115.11    4.48
  -5   6  -1  107.39    3.67
   6  -6   1    4.68    1.29
  -6   6  -1    2.58    1.15
   7  -6   1   32.85    2.84
  -7   6  -1   27.83    2.57
   7  -7  -1   27.44    2.54
  -7   7   1   22.45    2.53
   6  -7  -1    3.89    1.32
  -6   7   1    0.18    1.25
  -6   7   1    3.31    0.48
   5  -7  -1    3.06    1.05
  -5   7   1    2.91    0.76
  -5   7   1    4.01    1.18
   4  -7  -1   10.00    1.15
  -4   7   1    9.37    1.22
  -4   7   1    9.00    1.00
  -3   7   1   31.65    1.57
  -3   7   1   33.55    1.94
   2  -7  -1   30.24    1.55
  -2   7   1   29.25    1.42
   1  -7  -1   11.22    0.97
  -1  -7   1   11.22    0.84
  -1   7   1   10.36    1.28
   1   7  -1   10.46    1.16
   0  -7   1  104.76    3.28
   0  -7  -1  100.39    3.27
   0   7  -1  107.19    4.37
   0   7   1  108.99    4.37
  -1  -7  -1   39.37    1.53
   1  -7   1   38.95    1.63
  -1   7  -1   36.35    2.26
   1   7   1   37.69    2.06
   2  -7   1   44.11    1.88
  -2   7  -1   44.85    1.83
  -3   7  -1   28.15    1.49
  -4   7  -1    4.23    0.93
  -4   7  -1    2.49    0.83
   5  -7   1   34.50    2.17
  -5   7  -1   35.17    2.22
  -5   7  -1   29.89    1.71
   6  -7   1    0.93    1.18
  -6   7  -1   -0.11    1.20
  -6   7  -1    1.26    0.44
   7  -7   1   13.73    1.97
  -7   7  -1   10.11    1.90
  -6   8   1   22.81    1.30
  -5   8   1   14.73    1.28
  -4   8   1   52.37    2.31
  -3   8   1   23.06    1.45
   2  -8  -1   80.39    2.92
  -2   8   1   80.53    2.86
  -1  -8   1   28.81    1.31
   1  -8  -1   26.83    1.42
  -1   8   1   27.95    2.03
   0  -8  -1   90.48    3.02
   0  -8   1   89.82    3.01
   0   8  -1   96.37    4.12
   0   8   1   95.82    4.12
   1  -8   1   28.14    1.44
  -1  -8  -1   29.05    1.35
  -1   8  -1   28.45    2.10
   2  -8   1   74.06    2.77
  -2   8  -1   74.78    2.71
  -3   8  -1  145.45    4.69
  -4   8  -1   21.81    1.64
  -5   8  -1   24.52    1.64
  -6   8  -1   12.85    1.11
  -6   9   1   12.58    1.25
  -5   9   1   38.58    2.03
  -4   9   1    0.36    0.78
  -3   9   1   11.52    1.21
   2  -9  -1   71.09    2.77
  -1  -9   1   28.50    1.36
   1  -9  -1   32.33    1.59
   0  -9   1   61.33    2.20
   0  -9  -1   56.42    2.19
  -1  -9  -1   25.11    1.28
   1  -9   1   27.46    1.49
   2  -9   1   32.41    1.78
  -3   9  -1    1.32    0.76
  -4   9  -1   16.08    1.45
  -5   9  -1    6.65    1.08
  -6   9  -1   -0.10    0.69
  -5  10   1   -2.16    0.76
  -4  10   1    2.15    0.93
  -3  10   1    6.53    1.05
   2 -10  -1   90.00    3.35
   1 -10  -1   67.66    2.57
  -1 -10   1   65.18    2.23
   0 -10  -1   19.36    1.26
   0 -10   1   20.16    1.28
   1 -10   1   20.19    1.39
  -1 -10  -1   15.71    1.02
   2 -10   1    0.76    0.85
  -3  10  -1    4.04    0.94
  -4  10  -1    6.46    1.16
  -5  10  -1   20.76    1.72
  -5  11   1    3.44    1.02
  -4  11   1   48.19    2.38
   3 -11  -1   17.20    1.65
   2 -11  -1   -1.06    0.87
   1 -11  -1    1.98    0.86
   0 -11  -1   13.49    1.22
   0 -11   1   13.24    1.17
   1 -11   1   13.84    1.25
   2 -11   1   25.08    1.82
   3 -11   1   22.61    1.92
  -4  11  -1    1.06    0.92
  -5  11  -1    5.15    1.13
  -4  12   1   11.32    1.30
   3 -12  -1   18.47    1.73
   2 -12  -1   -0.53    0.97
   1 -12  -1   -0.17    0.81
   0 -12   1    5.05    0.86
   0 -12  -1    5.07    0.87
   1 -12   1   16.68    1.43
   2 -12   1    1.18    1.02
   3 -12   1    2.61    1.21
  -4  12  -1   33.61    2.10
   3 -13  -1   -1.15    1.10
   2 -13  -1   22.80    1.95
   1 -13  -1    5.90    1.07
   0 -13  -1   16.56    1.30
   0 -13   1   16.12    1.28
   1 -13   1   20.60    1.70
   2 -13   1   -0.15    1.02
   3 -13   1   -0.23    1.10
   2 -14  -1   -0.72    1.03
   1 -14  -1   32.52    1.99
   1 -14   1    0.49    0.91
   2 -14   1   10.42    1.39
  -8   0   2    4.95    1.51
   8   0  -2    4.77    1.41
  -7   0   2    3.19    1.22
  -6   0   2    1.15    0.88
  -5   0   2   47.78    2.24
  -4   0   2   23.03    1.28
   4   0  -2   25.09    1.03
  -3   0   2  179.37    6.07
   3   0  -2  177.81    5.97
   3   0  -2  174.59    6.00
   0   0  -2    0.54    0.12
   0   0   2    0.48    0.06
   1   0   2  343.84   11.73
   1   0   2  341.91   11.62
   2   0   2  130.09    4.42
   2   0   2  127.69    4.36
  -3   0  -2  101.28    3.59
   3   0   2   98.21    3.45
   3   0   2   99.93    3.59
  -4   0  -2   15.51    1.10
   4   0   2   16.18    0.81
  -5   0  -2  250.45    8.78
  -6   0  -2    4.54    1.09
  -7   0  -2    2.25    1.16
  -8   0  -2   53.85    3.38
  -8  -1   2    4.91    1.51
   8  -1  -2    4.21    1.47
   8   1  -2    6.40    1.41
  -8   1   2    3.75    1.45
  -7  -1   2    1.17    1.08
  -7   1   2    1.22    1.17
  -6  -1   2   58.45    2.91
  -6   1   2   61.11    2.93
  -5  -1   2    1.37    0.72
  -5   1   2    1.85    0.76
  -4  -1   2    3.10    0.63
   4  -1  -2    3.14    0.45
  -4   1   2    2.96    0.63
   3  -1  -2   76.99    2.92
  -3  -1   2   77.57    2.86
   3  -1  -2   77.56    2.78
  -3   1   2   78.42    2.88
   2  -1  -2    3.48    0.39
   2  -1  -2    2.60    0.29
   1  -1  -2   53.91    2.06
   1  -1  -2   65.97    2.12
  -1   1   2   56.71    2.04
   0  -1  -2    0.01    0.19
   0  -1  -2    0.07    0.11
   0  -1   2    0.05    0.15
   0   1  -2    0.02    0.13
   0   1  -2    0.14    0.07
   0   1   2    0.07    0.10
   0   1   2    0.23    0.17
   1  -1   2  222.98    7.74
   1  -1   2  217.95    7.66
  -1   1  -2  231.10    7.59
   2  -1   2   17.65    0.92
   2  -1   2   16.38    0.72
   3  -1   2    6.71    0.50
   3  -1   2    6.35    0.77
  -3  -1  -2    6.49    0.68
  -3   1  -2    6.42    0.63
  -3   1  -2    7.73    0.34
  -4  -1  -2   36.28    1.71
   4  -1   2   35.42    1.51
  -4   1  -2   34.55    1.67
   4   1   2   35.84    1.36
  -5  -1  -2    0.16    0.65
  -5   1  -2   -0.10    0.66
  -6  -1  -2   26.16    1.90
  -6   1  -2   22.57    1.84
  -7  -1  -2    1.72    1.15
  -7   1  -2    0.93    1.07
  -8  -1  -2   18.91    2.25
  -8   1  -2   17.30    2.08
  -8  -2   2   16.45    2.03
   8  -2  -2   17.69    2.14
  -8   2   2   15.93    2.08
   8   2  -2   24.51    2.26
   7  -2  -2   37.92    2.52
  -7  -2   2   35.19    2.50
  -7   2   2   31.70    2.44
  -6  -2   2    1.17    0.90
  -6   2   2    2.25    1.01
  -5  -2   2   51.89    2.36
  -5   2   2   50.24    2.36
  -4  -2   2  116.18    4.26
   4  -2  -2  115.87    4.26
  -4   2   2  119.02    4.31
   3  -2  -2   10.37    0.70
   3  -2  -2   10.42    0.96
  -3  -2   2   10.49    0.76
  -3   2   2    9.99    0.79
  -3   2   2   10.35    0.49
   2  -2  -2   11.35    0.69
   2  -2  -2   14.18    0.90
  -2   2   2   15.33    0.60
  -2   2   2   11.90    0.59
   1  -2  -2    8.65    0.57
   1  -2  -2    9.23    0.70
  -1   2   2   11.17    0.68
  -1   2   2   10.39    0.56
   0  -2   2  381.53   13.09
   0  -2  -2  389.93   13.22
   0  -2  -2  400.43   13.07
   0   2  -2  392.29   13.42
   0   2  -2  381.85   13.07
   0   2   2  374.89   13.27
   1  -2   2    3.72    0.53
   1  -2   2    5.04    0.42
  -1   2  -2    6.38    0.39
  -1   2  -2    5.48    0.66
   2  -2   2   80.58    2.92
   2  -2   2   80.71    3.13
  -2   2  -2   79.80    3.01
  -2   2  -2   83.31    2.42
  -3  -2  -2  608.36   20.33
   3  -2   2  600.35   20.83
   3  -2   2  620.43   21.14
  -3   2  -2  615.74   20.33
  -3   2  -2  647.69   16.92
  -4  -2  -2   13.06    1.01
  -4   2  -2   11.52    1.02
  -4   2  -2   13.18    0.48
  -5  -2  -2    5.29    0.88
  -5   2  -2    6.83    0.98
  -6  -2  -2   10.32    1.32
  -6   2  -2   10.22    1.35
  -7  -2  -2   48.17    2.91
  -7   2  -2   44.48    2.79
  -8  -2  -2    5.99    1.66
   8  -2   2    8.83    1.62
  -8   2  -2    6.91    1.60
  -8  -3   2   31.41    2.76
   8  -3  -2   34.37    2.88
  -8   3   2   29.46    2.78
   8   3  -2   44.24    2.71
  -7  -3   2    2.56    1.15
   7  -3  -2    2.98    1.23
  -7   3   2    0.90    1.18
  -6  -3   2   10.90    1.31
  -6   3   2    9.19    1.31
  -5  -3   2   18.70    1.36
  -5   3   2   19.54    1.47
  -4  -3   2  121.96    4.47
  -4   3   2  124.47    3.55
  -4   3   2  124.85    4.53
  -3  -3   2   12.36    0.80
   3  -3  -2   11.72    0.88
  -3   3   2   12.68    0.70
  -3   3   2   13.27    0.89
   2  -3  -2    1.13    0.52
   2  -3  -2    0.53    0.36
  -2   3   2    1.32    0.31
   1  -3  -2  600.55   19.45
   1  -3  -2  583.22   19.59
   1   3  -2  549.21   19.44
  -1   3   2  591.10   19.44
  -1   3   2  589.21   19.56
   1   3  -2  549.04   19.41
   0  -3  -2    0.23    0.34
   0  -3   2    0.09    0.39
   0   3  -2    0.40    0.37
   0   3   2    0.25    0.28
   0   3  -2    0.02    0.21
   0   3   2    0.09    0.33
   1  -3   2   56.13    2.31
   1  -3   2   57.70    2.11
   1   3   2   50.86    2.02
  -1   3  -2   56.34    2.35
  -1   3  -2   57.05    2.08
   2  -3   2    7.45    0.88
   2  -3   2    5.79    0.59
  -2   3  -2    5.95    0.53
  -2   3  -2    7.20    0.84
   3  -3   2   67.23    2.68
  -3  -3  -2   70.15    2.64
  -3   3  -2   69.51    2.63
  -3   3  -2   69.83    2.24
  -4  -3  -2   13.18    0.99
  -4   3  -2   11.43    0.71
  -4   3  -2   10.36    0.92
  -5  -3  -2    0.54    0.64
  -5   3  -2    0.87    0.73
  -6  -3  -2   60.21    2.97
  -6   3  -2   57.99    2.93
  -7  -3  -2    9.74    1.62
  -7   3  -2   10.87    1.57
  -8  -3  -2    2.59    1.52
   8  -3   2    5.68    1.58
  -8   3  -2    1.71    1.38
   7  -4  -2    3.37    1.44
  -7   4   2    0.42    1.24
   6  -4  -2    0.78    1.02
  -6  -4   2    1.48    0.90
  -6   4   2    0.25    0.94
  -5  -4   2   10.11    1.08
  -5   4   2    9.60    0.54
  -5   4   2   10.82    1.25
  -4  -4   2   11.54    0.98
  -4   4   2   10.89    0.73
  -4   4   2   12.67    1.06
  -3  -4   2   37.82    1.57
   3  -4  -2   36.17    1.76
  -3   4   2   37.66    1.65
  -3   4   2   35.44    1.43
   2  -4  -2  191.97    6.90
   2  -4  -2  198.71    7.17
   2  -4  -2  191.07    6.62
  -2   4   2  188.04    7.03
  -2   4   2  201.98    5.63
  -2   4   2  202.96    6.64
   1  -4  -2    6.21    0.76
   1  -4  -2    4.92    0.59
  -1  -4   2    5.56    0.38
   1   4  -2    5.25    0.44
  -1   4   2    5.50    0.59
  -1   4   2    6.26    0.78
   1   4  -2    5.81    0.57
   0  -4  -2   30.44    1.45
   0  -4   2   27.66    1.48
   0   4  -2   28.22    1.23
   0   4   2   28.05    1.42
   0   4   2   29.61    1.30
   0   4  -2   29.23    1.45
   1  -4   2  102.32    3.90
  -1  -4  -2   98.35    2.91
   1  -4   2  100.97    3.66
   1   4   2  100.72    3.64
   1   4   2   97.46    3.66
  -1   4  -2  102.37    3.64
  -1   4  -2  100.02    3.92
   2  -4   2   52.35    2.18
   2  -4   2   54.26    2.52
  -2   4  -2   53.29    2.50
  -2   4  -2   52.56    1.81
  -3  -4  -2    8.82    0.77
   3  -4   2   10.07    0.91
  -3   4  -2    8.07    0.76
  -3   4  -2    9.17    0.77
  -4  -4  -2   23.30    1.31
  -4   4  -2   23.71    1.34
  -4   4  -2   18.84    1.14
  -5  -4  -2   94.54    3.82
  -5   4  -2   96.02    3.82
  -5   4  -2   92.43    2.82
  -6  -4  -2    2.11    0.96
  -6   4  -2    0.53    0.94
   7  -4   2    5.43    1.37
  -7  -4  -2    2.55    1.24
  -7   4  -2    2.08    1.22
   7  -5  -2    0.28    1.37
  -7   5   2   -1.96    1.22
   6  -5  -2  128.73    5.19
  -6   5   2  123.29    5.10
   5  -5  -2    0.42    0.79
  -5   5   2    0.48    0.75
  -5   5   2   -0.16    0.42
   4  -5  -2   17.96    1.28
  -4   5   2   16.49    0.98
  -4   5   2   17.00    1.23
   3  -5  -2   83.47    3.26
   3  -5  -2   75.59    3.01
  -3   5   2   78.50    3.01
  -3   5   2   78.51    2.62
   2  -5  -2   64.53    2.50
   2  -5  -2   66.77    2.74
  -2   5   2   65.00    2.21
  -2   5   2   63.99    2.91
   2   5  -2   65.16    2.48
  -2   5   2   69.05    2.57
   2   5  -2   68.45    2.43
   1  -5  -2   94.59    2.88
   1  -5  -2   91.05    3.52
  -1  -5   2   90.85    2.72
   1   5  -2   90.72    3.32
  -1   5   2   90.10    3.69
   1   5  -2   93.09    3.47
   0  -5   2   13.30    0.74
   0  -5  -2   13.60    0.76
   0   5  -2   13.66    1.13
   0   5   2   12.34    1.09
   0   5  -2   13.66    0.83
   0   5   2   13.02    0.87
   1  -5   2  466.02   12.28
   1  -5   2  436.73   15.09
  -1  -5  -2  438.19   12.19
  -1   5  -2  431.70   15.37
   1   5   2  438.21   15.12
   2  -5   2   13.05    0.93
   2  -5   2   13.18    1.02
   2   5   2   13.68    0.95
   2   5   2   13.81    0.88
  -2   5  -2   11.82    1.38
  -2   5  -2   13.33    0.86
   3  -5   2    2.10    0.65
  -3  -5  -2    2.45    0.51
  -3   5  -2    1.72    0.53
  -3   5  -2    2.07    0.53
  -4  -5  -2   21.36    1.26
  -4   5  -2   17.75    1.22
  -4   5  -2   19.51    1.28
  -5  -5  -2    1.40    0.75
  -5   5  -2    0.79    0.81
  -5   5  -2    0.89    0.47
  -6   5  -2    7.33    1.26
   7  -5   2    4.17    1.46
  -7   5  -2    1.57    1.24
   7  -6  -2   13.79    1.97
  -7   6   2   10.59    1.88
   6  -6  -2    2.15    1.23
  -6   6   2    1.66    1.15
   5  -6  -2   13.04    1.52
  -5   6   2   11.15    0.94
  -5   6   2   10.89    1.30
   4  -6  -2    4.95    0.90
  -4   6   2    3.64    0.68
  -4   6   2    5.00    0.90
   3  -6  -2    2.62    0.77
   3  -6  -2    1.80    0.65
  -3   6   2    1.89    0.68
   3   6  -2    1.47    0.45
  -3   6   2    1.02    0.55
   2  -6  -2    4.21    0.69
   2  -6  -2    3.79    0.78
   2  -6  -2    2.87    0.62
  -2   6   2    4.14    0.78
  -2   6   2    3.72    0.60
   2   6  -2    4.73    0.69
  -1  -6   2   19.08    0.91
   1   6  -2   15.90    1.23
  -1   6   2   17.30    1.46
   0  -6  -2   78.27    2.45
   0  -6   2   77.12    2.44
   0   6  -2   75.72    2.92
   0   6   2   75.50    2.96
   0   6   2   73.49    3.24
   0   6  -2   74.55    3.24
   1  -6   2    9.50    0.83
  -1  -6  -2    9.41    0.77
   1   6   2    9.39    1.06
  -1   6  -2   10.76    1.28
   2  -6   2   50.21    2.37
   2  -6   2   53.80    1.99
   2   6   2   52.66    2.25
  -2   6  -2   53.02    1.95
   3  -6   2    1.26    0.52
   3  -6   2    2.12    0.72
  -3   6  -2    0.31    0.52
   3   6   2    0.52    0.46
  -3   6  -2    0.60    0.51
   4  -6   2    2.63    0.70
  -4   6  -2    1.17    0.68
  -4   6  -2    1.85    0.71
   5  -6   2    1.27    0.84
  -5   6  -2    0.22    0.79
  -5   6  -2   -0.68    0.55
   6  -6   2    5.56    1.25
  -6   6  -2    1.82    1.07
   7  -6   2    3.21    1.51
  -7   6  -2    2.26    1.34
   7  -7  -2   -0.09    1.53
  -7   7   2   -1.73    1.58
   6  -7  -2   28.41    2.43
  -6   7   2   27.75    1.16
  -6   7   2   25.98    2.52
   5  -7  -2   -0.18    0.97
  -5   7   2   -0.49    1.06
  -5   7   2   -0.66    0.62
   4  -7  -2  106.29    4.29
  -4   7   2  109.39    3.66
  -4   7   2  114.27    4.48
  -3   7   2   12.11    1.27
  -3   7   2   11.15    1.05
   2  -7  -2    1.84    0.63
  -2   7   2    1.89    0.53
   1  -7  -2  206.05    6.12
  -1  -7   2  209.51    6.03
   1   7  -2  213.00    7.66
  -1   7   2  204.86    7.79
   0  -7  -2   24.38    1.17
   0  -7   2   25.37    1.17
   0   7  -2   21.97    1.70
   0   7   2   24.90    1.75
   1  -7   2   63.14    2.28
  -1  -7  -2   62.12    2.20
   1   7   2   64.68    2.90
  -1   7  -2   65.99    3.14
   2  -7   2    1.59    0.65
  -2   7  -2    1.64    0.57
  -3   7  -2   72.83    2.67
  -4   7  -2   -1.26    0.66
  -5   7  -2    8.76    1.05
  -5   7  -2   11.40    1.38
   6  -7   2   25.71    2.25
  -6   7  -2   21.11    1.07
  -6   7  -2   20.11    2.14
  -7   7  -2    4.89    1.66
  -6   8   2    4.72    0.72
  -5   8   2   -2.17    0.62
  -4   8   2   14.38    1.30
  -3   8   2    8.72    0.99
   2  -8  -2    0.96    0.69
  -2   8   2    0.72    0.57
   1  -8  -2    5.90    0.78
  -1  -8   2    6.43    0.68
  -1   8   2    8.17    1.28
   0  -8  -2   17.88    1.08
   0  -8   2   17.91    1.05
   0   8  -2   16.15    1.65
   0   8   2   16.69    1.62
   1  -8   2   17.58    1.19
  -1  -8  -2   17.63    1.08
  -1   8  -2   17.95    1.79
   2  -8   2   12.10    1.12
  -2   8  -2   12.25    1.09
  -3   8  -2   24.22    1.53
  -4   8  -2    1.93    0.88
  -5   8  -2   -1.21    0.73
  -6   8  -2    5.80    0.84
  -6   9   2   17.47    1.35
  -5   9   2   -0.16    0.78
  -4   9   2   22.83    1.59
  -3   9   2    6.49    0.99
   2  -9  -2    2.38    0.81
   1  -9  -2   59.78    2.29
  -1  -9   2   56.95    2.08
   0  -9   2    7.54    0.77
   0  -9  -2    5.95    0.74
  -1  -9  -2   60.44    2.22
   1  -9   2   62.61    2.39
   2  -9   2   15.13    1.38
  -3   9  -2   20.82    1.55
  -4   9  -2   18.71    1.69
  -5   9  -2    1.21    0.92
  -6   9  -2    4.58    0.89
  -5  10   2    1.62    0.91
  -4  10   2    1.99    0.86
  -3  10   2    1.34    0.83
   2 -10  -2    8.59    1.13
  -1 -10   2    3.06    0.55
   1 -10  -2    2.45    0.78
   0 -10   2   48.92    2.01
   0 -10  -2   49.59    2.04
  -1 -10  -2   20.01    1.13
   1 -10   2   20.72    1.43
   2 -10   2    2.32    0.93
  -3  10  -2   34.65    1.99
  -4  10  -2   11.21    1.37
  -5  10  -2   15.46    1.50
  -5  11   2    8.44    1.24
  -4  11   2    3.52    0.94
   3 -11  -2    5.64    1.21
   2 -11  -2   -0.35    0.89
   1 -11  -2    1.61    0.84
   0 -11  -2   15.33    1.27
   0 -11   2   15.11    1.21
   1 -11   2   28.64    1.72
   2 -11   2   11.50    1.37
   3 -11   2    1.18    1.02
  -4  11  -2    4.73    1.12
  -5  11  -2   -2.01    0.86
  -4  12   2    7.40    1.14
   3 -12  -2    7.23    1.32
   2 -12  -2   39.42    2.25
   1 -12  -2    4.17    0.98
   0 -12   2    3.80    0.79
   0 -12  -2    4.20    0.84
   1 -12   2   26.25    1.74
   2 -12   2    5.39    1.20
   3 -12   2   18.86    1.81
  -4  12  -2    2.17    0.97
   3 -13  -2    9.77    1.51
   2 -13  -2    8.56    1.30
   1 -13  -2    2.83    0.98
   0 -13  -2    7.01    0.94
   0 -13   2    9.23    0.97
   1 -13   2    4.79    1.01
   2 -13   2    0.18    1.05
   3 -13   2   -1.54    1.09
   2 -14  -2    7.18    1.30
   1 -14  -2    1.56    0.96
   1 -14   2    4.73    1.02
   2 -14   2    0.64    1.08
   8   0  -3    2.11    1.34
  -8   0   3    0.62    1.32
  -7   0   3    0.88    1.13
  -6   0   3   -0.09    0.85
  -5   0   3   -0.10    0.64
   4   0  -3   -0.14    0.24
  -4   0   3   -0.43    0.48
   3   0  -3    0.18    0.20
   3   0  -3   -0.02    0.13
  -3   0   3   -0.10    0.34
   1   0  -3   -0.10    0.06
   0   0  -3    0.03    0.14
   0   0  -3    0.01    0.05
   0   0   3    0.06    0.06
   0   0   3   -0.11    0.13
  -1   0  -3    0.00    0.16
  -1   0  -3    0.47    0.12
   1   0   3    0.12    0.22
   1   0   3    0.70    0.13
   2   0   3    0.04    0.14
   2   0   3    0.15    0.26
   3   0   3    0.12    0.37
  -3   0  -3    0.16    0.34
   3   0   3    0.12    0.21
   4   0   3   -0.11    0.28
  -4   0  -3    0.25    0.44
  -5   0  -3    0.62    0.62
  -7   0  -3    2.77    1.16
  -8   0  -3    2.33    1.37
  -8  -1   3   35.81    2.84
   8  -1  -3   42.14    3.04
   8   1  -3   45.90    2.87
  -8   1   3   39.65    2.92
   7  -1  -3    9.27    1.46
  -7  -1   3    8.19    1.43
  -7   1   3    8.68    1.50
  -6  -1   3   79.06    3.54
  -6   1   3   82.88    3.62
  -5  -1   3   38.67    1.93
  -5   1   3   40.04    2.05
   4  -1  -3   52.47    2.02
  -4  -1   3   50.99    2.14
  -4   1   3   50.72    2.17
   3  -1  -3   56.18    2.09
   3  -1  -3   55.11    2.21
  -3  -1   3   56.91    2.17
  -3   1   3   57.91    2.21
   2  -1  -3   15.61    0.75
   2  -1  -3   14.14    0.66
   1  -1  -3  694.68   24.15
   1  -1  -3  724.90   24.30
  -1   1   3  707.13   24.07
   0  -1   3   67.56    2.44
   0  -1  -3   67.13    2.34
   0  -1  -3   65.40    2.48
   0  -1   3   67.32    2.29
   0   1  -3   64.69    2.39
   0   1   3   65.93    2.47
   0   1  -3   67.50    2.29
   0   1   3   68.43    2.34
   1  -1   3  282.52    9.45
   1  -1   3  275.01    9.60
   1   1   3  278.53    9.38
  -1   1  -3  280.71    9.37
   1   1   3  267.68    9.32
   2  -1   3  176.03    6.12
   2  -1   3  172.73    5.94
  -3  -1  -3   14.36    0.90
   3  -1   3   16.52    1.07
   3  -1   3   15.09    0.77
  -3   1  -3   15.65    0.61
  -3   1  -3   14.96    0.89
   3   1   3   15.40    0.64
   3   1   3   15.54    0.73
   4  -1   3   55.91    2.20
  -4  -1  -3   54.92    2.35
  -4   1  -3   56.44    2.37
   4   1   3   57.23    2.06
  -5  -1  -3    1.66    0.66
  -5   1  -3    1.54    0.68
  -6  -1  -3   45.08    2.51
  -6   1  -3   44.65    2.47
  -7  -1  -3    7.84    1.46
  -7   1  -3    4.63    1.31
  -8  -1  -3    5.02    1.55
  -8   1  -3    7.79    1.61
  -8  -2   3    1.45    1.35
   8  -2  -3    3.32    1.47
  -8   2   3    2.42    1.49
   8   2  -3    5.89    1.43
   7  -2  -3    1.83    1.19
  -7  -2   3    2.10    1.13
  -7   2   3    2.62    1.20
  -6  -2   3   10.57    1.31
  -6   2   3    9.59    1.31
  -5  -2   3    1.64    0.70
  -5   2   3    1.34    0.73
   4  -2  -3   38.38    1.73
  -4  -2   3   41.64    1.82
  -4   2   3   41.22    1.88
   3  -2  -3   19.14    0.99
   3  -2  -3   19.69    1.24
  -3  -2   3   19.56    1.02
  -3   2   3   19.67    1.04
  -3   2   3   18.98    0.70
   2  -2  -3    0.92    0.30
   2  -2  -3    1.05    0.41
  -2   2   3    0.82    0.21
  -2   2   3    1.05    0.20
  -2   2   3    0.82    0.24
   1  -2  -3   97.15    3.56
   1  -2  -3   97.68    3.47
  -1   2   3   97.29    3.51
  -1   2   3  100.59    3.48
   0  -2  -3    9.35    0.63
   0  -2  -3    9.77    0.90
   0  -2   3    9.08    0.73
   0   2  -3   10.12    0.70
   0   2  -3    9.49    0.47
   0   2   3    9.89    0.63
   1  -2   3    0.72    0.37
  -1   2  -3    0.57    0.38
   1   2   3    0.11    0.19
   2  -2   3    2.42    0.55
   2  -2   3    2.28    0.33
  -2   2  -3    2.90    0.34
  -2   2  -3    2.50    0.51
   3  -2   3  178.61    6.34
  -3  -2  -3  180.58    6.27
  -3   2  -3  181.35    6.25
  -3   2  -3  188.46    5.19
  -4  -2  -3    5.26    0.72
  -4   2  -3    4.47    0.34
  -4   2  -3    4.72    0.69
  -5  -2  -3    1.59    0.67
  -5   2  -3    0.79    0.65
  -6  -2  -3   16.97    1.67
  -6   2  -3   14.19    1.62
  -7  -2  -3    8.09    1.53
  -7   2  -3    8.19    1.42
  -8  -2  -3    5.87    1.69
  -8   2  -3    7.93    1.63
  -8  -3   3   15.26    1.98
   8  -3  -3   15.62    2.06
  -8   3   3   16.33    2.08
   7  -3  -3    3.06    1.29
  -7  -3   3    3.12    1.20
  -7   3   3    2.82    1.24
  -6  -3   3   33.85    2.15
   6  -3  -3   32.97    2.24
  -6   3   3   33.62    2.20
  -5  -3   3    9.97    1.06
  -5   3   3    9.42    1.13
  -4  -3   3   36.77    1.69
  -4   3   3   35.93    1.22
  -4   3   3   37.40    1.77
  -3  -3   3  199.86    6.95
   3  -3  -3  205.17    7.22
  -3   3   3  205.79    7.03
  -3   3   3  211.24    5.77
   2  -3  -3    7.23    0.67
   2  -3  -3    7.84    0.88
  -2   3   3    7.02    0.54
   1  -3  -3  222.00    7.70
   1  -3  -3  217.08    7.56
  -1   3   3  223.86    7.58
   1   3  -3  207.95    7.39
  -1   3   3  224.49    7.65
   0  -3  -3   66.25    2.41
   0  -3   3   60.31    2.45
   0  -3  -3   60.76    2.60
   0   3   3   61.18    2.32
   0   3   3   60.24    2.38
   0   3  -3   62.96    2.42
   0   3  -3   60.37    2.23
   1  -3   3   90.97    3.23
   1  -3   3   92.44    3.45
   1   3   3   89.58    3.19
  -1   3  -3   91.84    3.21
   1   3   3   83.13    3.18
  -1   3  -3   89.75    3.48
   2  -3   3    6.35    0.84
   2  -3   3    7.40    0.64
  -2   3  -3    7.60    0.89
  -2   3  -3    7.12    0.58
   3  -3   3   38.28    1.70
  -3  -3  -3   39.09    1.70
  -3   3  -3   40.01    1.68
  -3   3  -3   38.54    1.44
  -4  -3  -3   98.18    3.73
  -4   3  -3   97.79    3.71
  -4   3  -3   98.18    3.03
  -5  -3  -3   19.97    1.50
  -5   3  -3   17.59    1.45
  -6  -3  -3   38.78    2.33
  -6   3  -3   37.54    2.31
  -7  -3  -3    3.67    1.28
  -7   3  -3    2.39    1.21
  -8  -3  -3   -0.04    1.47
   7  -4  -3    2.13    1.39
  -7   4   3    1.22    1.28
  -6  -4   3    6.56    1.12
   6  -4  -3    6.83    1.32
  -6   4   3    5.21    1.20
   5  -4  -3   50.92    2.48
  -5  -4   3   50.57    2.36
  -5   4   3   47.85    1.54
  -5   4   3   50.90    2.44
   4  -4  -3    3.50    0.69
  -4  -4   3    3.62    0.64
  -4   4   3    3.29    0.68
  -4   4   3    3.41    0.48
  -3  -4   3    0.78    0.39
   3  -4  -3    0.60    0.54
   3  -4  -3    0.29    0.51
  -3   4   3    1.03    0.47
  -3   4   3    0.27    0.39
   2  -4  -3   21.90    1.48
   2  -4  -3   21.20    1.24
   2  -4  -3   22.69    1.16
  -2   4   3   22.83    1.35
  -2   4   3   22.40    0.99
  -2   4   3   23.81    1.15
   1  -4  -3    2.05    0.57
  -1   4   3    3.35    0.58
  -1   4   3    2.08    0.42
   0  -4   3    4.23    0.73
   0   4  -3    4.51    0.64
   0   4   3    3.98    0.60
   0   4  -3    4.07    0.44
   0   4   3    4.37    0.52
   1  -4   3  103.44    3.76
  -1  -4  -3  105.28    3.03
   1  -4   3  107.96    4.03
   1   4   3   96.89    3.78
  -1   4  -3  106.09    3.74
  -1   4  -3  103.49    4.06
   1   4   3  101.08    3.76
   2  -4   3   64.06    2.85
   2  -4   3   64.00    2.51
  -2   4  -3   57.45    2.84
   2   4   3   64.32    2.31
   2   4   3   64.11    2.29
  -2   4  -3   64.40    2.10
  -3  -4  -3  131.96    4.64
   3  -4   3  128.85    4.80
  -3   4  -3  128.76    3.96
  -3   4  -3  131.67    4.60
  -4  -4  -3   41.11    1.87
  -4   4  -3   35.83    1.59
  -4   4  -3   37.40    1.81
  -5  -4  -3   35.14    1.98
  -5   4  -3   34.45    1.96
  -5   4  -3   33.42    1.27
  -6  -4  -3    1.76    0.95
  -6   4  -3    0.51    0.96
  -7  -4  -3    3.02    1.30
  -7   4  -3    0.57    1.15
   7  -5  -3    3.15    1.55
  -7   5   3    2.68    1.46
   6  -5  -3   16.59    1.93
   5  -5  -3    4.06    1.01
  -5   5   3    3.66    0.54
  -5   5   3    5.12    1.01
   4  -5  -3    3.15    0.78
  -4   5   3    2.33    0.68
   3  -5  -3    1.62    0.67
   3  -5  -3    1.09    0.58
  -3   5   3    0.51    0.45
  -3   5   3    1.48    0.57
   2  -5  -3   17.98    1.08
   2  -5  -3   19.83    1.27
  -2   5   3   19.43    1.50
  -2   5   3   18.60    1.20
  -2   5   3   17.37    0.96
   2   5  -3   18.80    0.91
  -1  -5   3   61.20    1.92
   1  -5  -3   64.92    2.59
  -1   5   3   61.66    2.72
   1   5  -3   64.52    2.35
   1   5  -3   58.34    2.49
   0  -5   3  163.94    4.65
   0  -5  -3  158.10    4.66
   0   5   3  163.72    5.76
   0   5   3  158.67    5.92
   0   5  -3  167.07    5.97
   0   5  -3  157.82    5.67
   1  -5   3   83.53    2.51
  -1  -5  -3   80.68    2.44
   1  -5   3   76.86    3.01
   1   5   3   71.17    3.04
  -1   5  -3   77.59    3.36
   2  -5   3   37.73    1.52
   2  -5   3   36.32    1.77
   2   5   3   40.76    1.71
   2   5   3   35.65    1.63
  -2   5  -3   36.79    1.49
   3  -5   3   33.84    1.78
  -3  -5  -3   37.11    1.64
  -3   5  -3   34.39    1.58
   3   5   3   35.24    1.45
  -3   5  -3   36.54    1.53
  -4  -5  -3    2.39    0.64
  -4   5  -3    0.18    0.55
  -4   5  -3    1.66    0.64
  -5  -5  -3    6.53    1.03
  -5   5  -3    4.61    0.94
  -5   5  -3    4.97    0.66
  -6  -5  -3    3.68    1.07
  -6   5  -3    2.39    0.99
   7  -5   3   21.66    2.36
  -7   5  -3   17.20    1.85
   7  -6  -3    1.96    1.56
  -7   6   3    1.28    1.56
   6  -6  -3    7.07    1.40
  -6   6   3    5.17    1.38
   5  -6  -3    5.01    1.12
  -5   6   3    4.12    1.10
  -5   6   3    4.48    0.70
   4  -6  -3   94.26    3.78
  -4   6   3   96.74    3.84
  -4   6   3   96.70    3.11
   3  -6  -3   70.06    3.08
   3  -6  -3   67.64    2.80
  -3   6   3   65.06    2.43
  -3   6   3   70.43    2.91
   3   6  -3   74.52    2.61
   2  -6  -3    4.69    0.80
   2  -6  -3    4.16    0.71
   2  -6  -3    4.32    0.71
   2   6  -3    5.60    0.71
  -2   6   3    5.36    0.65
  -1  -6   3   68.96    2.22
   1  -6  -3   68.45    2.35
  -1   6   3   67.98    3.08
   1   6  -3   71.89    2.91
   0  -6   3    4.01    0.53
   0  -6  -3    3.59    0.53
   0   6   3    3.15    0.81
   0   6  -3    3.84    0.82
   0   6   3    3.28    0.62
   0   6  -3    2.85    0.52
  -1  -6  -3   62.81    2.13
   1  -6   3   62.75    2.16
  -1   6  -3   62.47    3.00
   1   6   3   63.69    2.73
   2  -6   3   -0.52    0.45
   2   6   3    0.74    0.54
  -2   6  -3    1.09    0.49
   3  -6   3  178.67    6.65
  -3   6  -3  183.62    6.20
  -3   6  -3  171.90    5.39
  -4   6  -3   16.35    1.23
  -4   6  -3   14.56    1.25
   5  -6   3   27.23    1.75
  -5   6  -3   23.22    1.72
  -5   6  -3   19.50    1.35
   6  -6   3   59.24    3.06
  -6   6  -3   53.58    2.88
   7  -6   3    1.68    1.39
  -7   6  -3   -1.82    1.14
   7  -7  -3    0.00    1.54
  -7   7   3   -0.54    1.64
   6  -7  -3   -0.79    1.23
  -6   7   3    0.55    1.37
  -6   7   3    1.86    0.42
   5  -7  -3   20.66    1.84
  -5   7   3   21.84    2.11
  -5   7   3   18.42    1.31
   4  -7  -3    1.05    0.83
  -4   7   3   -0.87    0.52
  -4   7   3    0.77    0.99
   3  -7  -3    1.80    0.75
  -3   7   3    1.63    0.61
  -3   7   3    1.55    0.91
   2  -7  -3  139.26    4.35
  -2   7   3  136.11    4.28
   1  -7  -3   15.28    1.06
  -1  -7   3   16.72    0.95
   1   7  -3   16.00    1.36
  -1   7   3   18.02    1.56
   0  -7   3   59.63    2.09
   0  -7  -3   58.04    2.09
   0   7   3   62.68    2.86
   0   7  -3   59.97    2.88
  -1  -7  -3    6.90    0.69
  -1   7  -3    6.36    1.15
   1   7   3    6.17    0.96
   2  -7   3   75.76    2.70
  -2   7  -3   77.27    2.70
  -3   7  -3    3.25    0.72
  -4   7  -3   -0.13    0.71
  -5   7  -3   30.55    2.04
  -5   7  -3   28.12    1.71
  -6   7  -3    1.86    0.50
  -6   7  -3    0.63    1.15
  -7   7  -3    5.76    1.64
  -6   8   3   29.90    1.48
  -6   8   3   29.23    2.89
  -5   8   3   26.23    1.58
  -4   8   3    0.62    0.67
  -3   8   3    1.34    0.68
   2  -8  -3   38.03    1.82
  -2   8   3   36.31    1.69
  -1  -8   3   18.25    1.05
   1  -8  -3   17.60    1.18
  -1   8   3   18.64    1.71
   0  -8   3    0.99    0.48
   0  -8  -3    1.32    0.52
   0   8   3    0.51    0.82
   0   8  -3    1.52    0.88
  -1  -8  -3  232.31    6.89
   1  -8   3  235.30    6.95
  -1   8  -3  241.00    8.97
   2  -8   3   55.44    2.24
  -3   8  -3   13.73    1.30
  -4   8  -3    4.54    1.02
  -5   8  -3   19.78    1.61
  -6   8  -3    1.70    0.64
  -6   9   3   13.71    1.26
  -5   9   3    2.62    0.86
  -4   9   3   35.04    1.82
  -3   9   3   63.70    2.60
   2  -9  -3    3.38    0.84
  -1  -9   3   22.00    1.17
   1  -9  -3   23.97    1.41
   0  -9   3   86.88    2.89
   0  -9  -3   83.77    2.91
  -1  -9  -3   22.77    1.24
   1  -9   3   22.41    1.41
   2  -9   3    0.87    0.72
  -3   9  -3   45.37    2.19
  -4   9  -3   22.03    1.77
  -5   9  -3    6.56    1.15
  -6   9  -3    8.16    1.06
  -5  10   3   -0.71    0.84
  -4  10   3   43.32    2.11
  -3  10   3   57.20    2.49
   2 -10  -3    0.10    0.84
   1 -10  -3   33.24    1.73
  -1 -10   3   31.75    1.33
   0 -10  -3    6.70    0.85
   0 -10   3    7.87    0.85
  -1 -10  -3    0.72    0.52
   1 -10   3    0.37    0.69
   2 -10   3   -0.60    0.78
  -3  10  -3   66.69    2.83
  -4  10  -3   29.83    2.05
  -5  10  -3   -0.18    0.88
  -5  11   3   24.12    1.81
  -4  11   3    2.45    0.91
   3 -11  -3    3.99    1.19
   2 -11  -3   35.95    2.08
   1 -11  -3   72.46    2.82
   0 -11   3    5.43    0.81
   0 -11  -3    5.36    0.86
   1 -11   3   69.33    2.74
   2 -11   3   38.55    2.16
   3 -11   3    3.00    1.12
  -4  11  -3    7.20    1.25
  -5  11  -3   16.51    1.57
  -4  12   3    1.78    0.92
   3 -12  -3    0.27    1.08
   2 -12  -3   13.37    1.44
   1 -12  -3   23.31    1.68
   0 -12  -3    1.28    0.70
   0 -12   3    0.89    0.66
   1 -12   3   31.09    1.85
   2 -12   3   26.38    1.92
   3 -12   3    0.91    1.14
  -4  12  -3    7.30    1.22
   3 -13  -3   31.16    2.31
   2 -13  -3    4.29    1.16
   1 -13  -3   38.49    2.13
   0 -13  -3    9.41    1.01
   0 -13   3    9.41    0.97
   1 -13   3    8.35    1.15
   2 -13   3    0.50    1.05
   3 -13   3   10.80    1.52
   2 -14  -3    1.94    1.14
   1 -14  -3    3.61    1.02
   1 -14   3   12.21    1.28
   2 -14   3   -0.06    1.06
   8   0  -4    6.21    1.56
  -8   0   4    5.76    1.58
   7   0  -4    2.66    1.11
  -7   0   4    0.73    1.10
  -6   0   4    9.71    1.31
  -5   0   4  266.45    9.28
  -4   0   4   21.41    1.23
   4   0  -4   23.50    0.99
   3   0  -4    5.13    0.37
   3   0  -4    5.28    0.33
  -3   0   4    6.46    0.64
   1   0  -4   18.61    0.69
   1   0  -4   19.66    0.72
   0   0   4    1.20    0.32
   0   0  -4    1.04    0.13
   0   0  -4    1.44    0.33
   0   0   4    1.50    0.14
   1   0   4  131.61    4.39
  -1   0  -4  122.66    4.36
  -1   0  -4  125.88    4.27
   1   0   4  123.65    4.28
   2   0   4  331.73   11.41
   2   0   4  347.97   11.54
   3   0   4  237.68    8.11
  -3   0  -4  237.25    7.92
   3   0   4  225.35    7.92
   4   0   4   15.92    0.84
  -4   0  -4   14.31    1.08
  -5   0  -4   39.33    2.08
  -6   0  -4   53.65    2.78
  -7   0  -4   12.24    1.67
  -8   0  -4    6.31    1.64
   8  -1  -4   33.36    2.74
  -8  -1   4   32.77    2.68
  -8   1   4   31.12    2.75
   8   1  -4   35.11    2.65
  -7  -1   4    1.38    1.11
   7  -1  -4    2.89    1.19
  -7   1   4    1.48    1.18
  -6  -1   4   18.67    1.56
  -6   1   4   20.44    1.64
  -5  -1   4   11.76    1.18
  -5   1   4   10.89    1.11
  -4  -1   4   40.56    1.83
   4  -1  -4   41.88    1.68
  -4   1   4   39.30    1.86
   3  -1  -4    8.01    0.55
  -3  -1   4    8.29    0.70
   3  -1  -4    8.43    0.69
  -3   1   4    9.13    0.76
   2  -1  -4    0.13    0.20
   2  -1  -4    0.11    0.23
   1  -1  -4  200.67    6.79
   1  -1  -4  205.48    6.80
  -1   1   4  193.17    6.77
   0  -1  -4   22.76    0.91
   0  -1   4   23.24    1.08
   0  -1   4   22.76    0.84
   0  -1  -4   21.34    1.12
   0   1   4   21.93    1.13
   0   1  -4   22.19    1.01
   0   1   4   22.29    0.89
   0   1  -4   23.38    0.85
   1  -1   4  133.37    4.82
   1  -1   4  140.54    4.68
   1   1   4  134.61    4.66
   1   1   4  139.57    4.70
  -1   1  -4  142.62    4.66
  -1   1  -4  130.09    4.86
   2  -1   4   81.40    2.95
   2  -1   4   85.01    3.16
  -2   1  -4   84.96    2.86
   2   1   4   84.08    2.92
   2   1   4   81.04    2.87
  -2   1  -4   86.29    2.45
  -2   1  -4   83.14    2.90
   3  -1   4   71.73    2.82
   3  -1   4   64.73    2.53
  -3  -1  -4   68.55    2.65
  -3   1  -4   68.62    2.62
   3   1   4   70.16    2.55
   3   1   4   66.92    2.44
  -3   1  -4   74.51    2.06
  -4  -1  -4    0.92    0.52
   4  -1   4    0.40    0.37
   4   1   4    0.75    0.29
  -4   1  -4    0.75    0.48
  -5  -1  -4    7.38    1.00
  -5   1  -4    6.77    1.01
  -6  -1  -4   17.03    1.69
  -6   1  -4   14.91    1.61
  -7  -1  -4    4.18    1.26
  -7   1  -4    2.72    1.16
  -8  -1  -4    2.66    1.52
  -8   1  -4    3.11    1.43
  -8  -2   4    1.18    1.33
   8  -2  -4    0.11    1.37
  -8   2   4    0.10    1.39
   8   2  -4    3.48    1.36
   7  -2  -4   73.93    3.65
  -7  -2   4   73.58    3.57
  -7   2   4   71.51    3.66
  -6  -2   4    3.05    0.98
  -6   2   4    1.68    0.99
  -5  -2   4   10.97    1.14
  -4  -2   4    0.47    0.47
   4  -2  -4    1.37    0.44
  -4   2   4    0.88    0.54
   3  -2  -4  162.02    5.73
  -3  -2   4  163.86    5.60
   3  -2  -4  164.13    5.92
  -3   2   4  162.96    4.54
  -3   2   4  163.32    5.65
   2  -2  -4   22.48    1.03
   2  -2  -4   22.15    1.13
  -2   2   4   21.12    0.90
  -2   2   4   22.80    0.77
  -2   2   4   22.64    0.93
   1  -2  -4  111.09    3.96
   1  -2  -4  111.91    4.02
  -1   2   4  110.28    3.96
  -1   2   4  115.22    3.98
   0  -2  -4  633.16   20.14
   0  -2   4  614.56   20.38
   0  -2  -4  570.54   20.30
   0  -2   4  597.12   20.21
   0   2  -4  585.57   20.44
   0   2   4  579.15   20.75
   0   2  -4  607.48   20.41
   0   2   4  599.41   20.26
   1  -2   4  193.24    6.56
   1  -2   4  196.00    6.75
   1   2   4  191.47    6.53
   1   2   4  191.33    6.54
  -1   2  -4  190.81    6.54
  -1   2  -4  188.62    6.80
   2  -2   4    1.26    0.51
  -2   2  -4    1.67    0.51
  -2   2  -4    1.71    0.32
   3  -2   4    0.28    0.32
  -3  -2  -4    0.97    0.42
  -3   2  -4    0.68    0.43
  -3   2  -4    0.51    0.31
  -4  -2  -4    1.63    0.58
  -4   2  -4    1.29    0.58
   4   2   4    1.44    0.30
  -4   2  -4    1.14    0.27
  -5  -2  -4   57.76    2.62
  -5   2  -4   52.92    2.54
  -6  -2  -4   28.77    2.05
  -6   2  -4   27.43    1.96
  -7  -2  -4   25.79    2.30
  -7   2  -4   21.71    2.13
  -8  -2  -4   36.04    3.07
  -8   2  -4   38.95    2.91
  -8  -3   4    0.85    1.45
   8  -3  -4    2.62    1.56
   8   3  -4    4.31    1.38
  -8   3   4    0.85    1.52
  -7  -3   4    1.79    1.12
   7  -3  -4    0.79    1.22
  -7   3   4    0.51    1.19
  -6  -3   4   48.37    2.55
   6  -3  -4   48.24    2.67
  -6   3   4   46.97    2.63
  -5  -3   4    2.45    0.75
  -5   3   4    2.79    0.87
  -4  -3   4    1.47    0.54
  -4   3   4    1.14    0.28
  -4   3   4    1.14    0.55
  -3  -3   4  293.66    9.79
   3  -3  -4  291.53   10.16
  -3   3   4  291.10    9.87
  -3   3   4  297.86    8.13
   2  -3  -4   38.50    1.83
   2  -3  -4   38.25    1.63
  -2   3   4   37.21    1.30
   1  -3  -4   12.10    0.78
   1  -3  -4   12.16    0.89
  -1   3   4   11.74    0.82
   1   3  -4   10.47    0.51
  -1   3   4   10.88    0.75
   0  -3   4   59.13    2.42
   0  -3  -4   64.03    2.34
   0  -3  -4   58.78    2.56
   0   3  -4   57.78    2.15
   0   3  -4   56.27    2.33
   0   3   4   58.67    2.30
   1  -3   4  134.45    4.87
   1  -3   4  130.31    4.64
   1   3   4  129.06    4.64
  -1   3  -4  134.22    4.94
   1   3   4  129.50    4.64
  -1   3  -4  136.68    4.63
   2  -3   4   47.03    2.17
   2  -3   4   45.29    1.84
  -2   3  -4   46.82    1.58
  -2   3  -4   43.06    2.17
  -3  -3  -4    0.79    0.46
   3  -3   4    0.28    0.40
  -3   3  -4   -0.28    0.39
  -3   3  -4   -0.12    0.36
  -4  -3  -4  246.05    8.51
  -4   3  -4  244.52    8.45
  -4   3  -4  245.48    7.03
  -5  -3  -4    1.83    0.76
  -5   3  -4    0.59    0.71
  -6  -3  -4    2.52    1.01
  -6   3  -4    1.71    0.95
  -7  -3  -4    8.66    1.57
  -7   3  -4    6.91    1.42
   7  -4  -4    2.48    1.39
  -7   4   4    2.04    1.36
   6  -4  -4    2.16    1.11
  -6  -4   4    1.42    0.90
  -6   4   4    0.30    1.00
   5  -4  -4   52.36    2.56
  -5  -4   4   55.65    2.45
  -5   4   4   50.20    1.60
  -5   4   4   54.29    2.56
   4  -4  -4   68.13    2.88
  -4  -4   4   69.89    2.75
  -4   4   4   70.60    2.87
  -4   4   4   72.30    2.24
   3  -4  -4    0.41    0.54
  -3  -4   4    0.90    0.40
   3  -4  -4    0.50    0.55
  -3   4   4    0.89    0.51
  -3   4   4    0.15    0.35
   2  -4  -4  142.18    5.18
   2  -4  -4  145.64    5.40
   2  -4  -4  140.29    4.93
  -2   4   4  141.57    5.25
  -2   4   4  142.72    4.18
  -2   4   4  142.14    4.98
   1  -4  -4    8.87    0.78
   1   4  -4    7.08    0.61
  -1   4   4    6.30    0.69
   1   4  -4    7.71    0.51
  -1   4   4    8.16    0.85
   0  -4   4   10.01    0.55
   0   4  -4    9.60    0.87
   0   4   4    9.45    0.84
   0   4  -4    9.07    0.59
   0   4   4    9.47    0.73
   1  -4   4   24.37    1.15
  -1  -4  -4   25.28    0.96
  -1   4  -4   21.99    1.10
  -1   4  -4   21.37    1.45
   1   4   4   20.29    1.16
   1   4   4   28.29    1.29
   2  -4   4   97.40    3.67
   2  -4   4   98.70    4.00
  -2   4  -4   94.72    4.07
   2   4   4  102.07    3.54
   2   4   4   96.42    3.51
  -2   4  -4  101.27    3.07
  -3  -4  -4  122.49    4.32
   3  -4   4  115.51    4.40
  -3   4  -4  118.02    3.66
  -3   4  -4  118.77    4.22
  -4  -4  -4    7.74    0.89
  -4   4  -4    5.83    0.72
  -4   4  -4    6.74    0.84
  -5  -4  -4   37.75    2.04
  -5   4  -4   34.21    1.31
  -5   4  -4   33.05    1.92
  -6  -4  -4   21.17    1.88
  -6   4  -4   18.59    1.76
  -7  -4  -4    4.52    1.40
  -7   4  -4    2.80    1.23
   7  -5  -4   -0.32    1.37
  -7   5   4   -1.38    1.28
   6  -5  -4    2.92    1.25
  -6   5   4    0.97    1.13
   5  -5  -4   47.43    2.39
  -5   5   4   41.15    1.60
  -5   5   4   43.74    2.33
   4  -5  -4   33.75    1.83
  -4   5   4   34.30    1.82
  -4   5   4   34.78    1.39
   3  -5  -4   67.13    2.81
   3  -5  -4   62.83    2.59
  -3   5   4   64.08    2.63
  -3   5   4   62.47    2.18
   2  -5  -4    4.19    0.64
   2  -5  -4    4.28    0.74
   2   5  -4    4.76    0.50
  -2   5   4    4.37    0.79
  -2   5   4    3.54    0.54
  -1  -5   4  436.49   12.27
  -1   5   4  439.47   15.44
   1   5  -4  449.86   15.11
   1   5  -4  462.82   15.27
   0  -5   4   16.72    0.80
   0  -5  -4   16.64    0.84
   0  -5   4   14.33    1.04
   0   5  -4   16.99    1.23
   0   5   4   15.79    1.18
   0   5   4   16.85    1.04
   0   5  -4   15.73    0.88
   1  -5   4    1.51    0.50
  -1  -5  -4    2.27    0.44
   1  -5   4    1.44    0.43
   1   5   4    1.24    0.63
   1   5   4    1.62    0.58
  -1   5  -4    2.49    0.84
   2  -5   4  292.84   10.35
  -2  -5  -4  291.42   10.01
   2  -5   4  305.48    8.46
   2   5   4  299.01   10.25
  -2   5  -4  297.52    8.46
  -3  -5  -4   11.83    0.98
   3  -5   4   12.53    1.10
   3   5   4   12.75    0.83
  -3   5  -4   11.34    0.94
  -3   5  -4   10.92    0.86
  -4  -5  -4   39.03    1.92
  -4   5  -4   34.10    1.69
  -4   5  -4   38.76    1.84
  -5  -5  -4    2.12    0.87
  -5   5  -4    1.40    0.55
  -5   5  -4    0.68    0.80
  -6  -5  -4   92.30    4.13
  -6   5  -4   90.58    3.96
   7  -5   4    4.60    1.37
  -7   5  -4    0.66    1.14
   7  -6  -4    4.34    1.69
  -7   6   4    2.78    1.70
   6  -6  -4    5.59    1.39
  -6   6   4    6.61    1.48
   5  -6  -4    1.87    0.97
  -5   6   4    2.22    1.03
  -5   6   4    1.13    0.56
   4  -6  -4    2.66    0.85
  -4   6   4    1.36    0.55
  -4   6   4    1.17    0.84
   3  -6  -4    8.94    0.96
   3  -6  -4    8.44    1.07
  -3   6   4    8.80    1.05
  -3   6   4   10.35    0.88
   3   6  -4    7.96    0.74
   2  -6  -4   19.89    1.33
   2  -6  -4   19.68    1.19
   2  -6  -4   19.39    1.39
  -2   6   4   21.14    1.11
   2   6  -4   19.86    1.20
   1  -6  -4   10.39    0.85
  -1  -6   4   10.07    0.70
   1   6  -4    7.66    0.92
  -1   6   4    8.14    1.06
   0  -6   4   39.59    1.45
   0  -6  -4   38.43    1.46
   0   6   4   38.80    1.79
   0   6  -4   37.26    1.66
   0   6  -4   35.53    2.03
   0   6   4   36.72    1.98
  -1  -6  -4   27.20    1.26
   1  -6   4   28.99    1.28
  -1   6  -4   28.75    1.94
   1   6   4   28.15    1.64
   2  -6   4    0.90    0.55
  -2   6  -4    1.00    0.51
   2   6   4    0.98    0.58
  -3   6  -4    7.43    0.82
  -3   6  -4    7.70    0.85
  -4   6  -4    3.07    0.76
  -4   6  -4    3.50    0.77
  -5   6  -4    2.19    0.92
  -5   6  -4    1.58    0.69
   6  -6   4    1.96    1.06
  -6   6  -4   -0.68    0.94
   7  -6   4   11.85    1.79
  -7   6  -4    7.59    1.52
   7  -7  -4   -2.31    1.50
  -7   7   4   -2.86    1.64
   6  -7  -4   36.29    2.59
  -6   7   4   37.45    2.85
   5  -7  -4   18.49    1.82
  -5   7   4   14.70    1.21
  -5   7   4   18.56    2.02
   4  -7  -4    2.06    0.93
  -4   7   4    1.62    0.62
  -4   7   4    3.20    1.14
   3  -7  -4  135.67    4.95
  -3   7   4  132.40    4.23
   2  -7  -4    2.99    0.74
  -2   7   4    3.72    0.62
   1  -7  -4   67.82    2.45
  -1  -7   4   72.98    2.36
   1   7  -4   74.50    3.16
  -1   7   4   70.87    3.26
   0  -7  -4   12.37    0.89
   0  -7   4   11.48    0.87
   0   7   4   10.85    1.30
   0   7  -4   13.04    1.37
   1  -7   4  105.86    3.43
  -1  -7  -4  107.77    3.42
   1   7   4  108.96    4.36
  -1   7  -4  108.59    4.61
   2  -7   4   93.11    3.17
  -2   7  -4   96.39    3.20
  -3   7  -4    8.55    0.96
  -4   7  -4  103.05    3.68
  -5   7  -4   -0.20    0.70
  -6   7  -4   13.39    0.93
  -6   7  -4   17.64    1.79
  -6   8   4    4.36    0.69
  -5   8   4   -1.12    0.64
  -4   8   4    0.42    0.62
  -3   8   4    4.78    0.83
   2  -8  -4    2.38    0.73
  -2   8   4    2.83    0.67
  -1  -8   4   19.04    1.06
   0  -8  -4    1.15    0.52
   0  -8   4    1.04    0.49
   0   8   4    0.79    0.82
   0   8  -4    0.04    0.81
  -1  -8  -4    9.36    0.86
  -1   8  -4    5.05    1.21
   2  -8   4    1.10    0.70
  -3   8  -4    3.74    0.82
  -4   8  -4    0.76    0.79
  -5   8  -4   -0.82    0.75
  -6   8  -4    5.72    0.81
  -6   9   4   11.42    1.12
  -5   9   4    4.25    0.94
  -4   9   4    0.31    0.70
  -3   9   4   54.74    2.33
   2  -9  -4   11.51    1.13
   1  -9  -4   73.69    2.71
  -1  -9   4   77.41    2.55
   0  -9  -4   15.44    1.13
   0  -9   4   17.20    1.10
  -1  -9  -4   17.39    1.15
   1  -9   4   19.43    1.31
   2  -9   4   43.08    2.08
  -3   9  -4    1.55    0.83
  -4   9  -4   35.27    2.11
  -5   9  -4    0.36    0.90
  -6   9  -4   17.35    1.44
  -5  10   4    5.64    1.07
  -4  10   4    1.38    0.81
  -3  10   4   25.83    1.68
   2 -10  -4    1.59    0.90
   1 -10  -4    8.80    1.00
  -1 -10   4    7.69    0.75
   0 -10  -4   12.74    1.17
   0 -10   4   14.16    1.10
  -1 -10  -4    8.35    0.81
   1 -10   4    9.00    1.04
   2 -10   4   -0.01    0.78
  -3  10  -4    4.44    1.03
  -4  10  -4    0.81    0.98
  -5  10  -4    4.44    1.13
  -5  11   4    0.67    0.93
  -4  11   4    2.29    0.91
   3 -11  -4    4.04    1.18
   2 -11  -4   11.52    1.30
   1 -11  -4   39.48    2.00
   0 -11  -4    2.97    0.75
   0 -11   4    3.38    0.71
   1 -11   4    6.33    1.00
  -1 -11  -4    5.39    0.52
   2 -11   4   -0.12    0.89
   3 -11   4    2.11    1.08
  -4  11  -4   15.34    1.59
  -5  11  -4    4.25    1.10
  -4  12   4    3.30    0.94
   3 -12  -4   -1.17    1.02
   2 -12  -4    4.12    1.13
   1 -12  -4    3.04    0.94
   0 -12  -4    5.32    0.91
   0 -12   4    5.46    0.84
   1 -12   4   10.72    1.20
   2 -12   4    8.71    1.28
   3 -12   4   23.70    2.05
  -4  12  -4    6.06    1.20
   3 -13  -4    2.11    1.23
   2 -13  -4   14.50    1.52
   1 -13  -4    7.00    1.12
   0 -13   4    1.74    0.70
   0 -13  -4    1.37    0.73
   1 -13   4    2.15    0.94
   2 -13   4    5.65    1.23
   3 -13   4   11.48    1.59
   2 -14  -4    0.84    1.13
   1 -14  -4    4.76    1.07
   1 -14   4   22.59    1.74
   2 -14   4    2.38    1.15
   8   0  -5    1.07    1.37
  -8   0   5    1.08    1.40
  -7   0   5    0.30    1.04
   7   0  -5    0.61    0.98
  -6   0   5    0.80    0.92
  -5   0   5   -0.10    0.67
  -4   0   5    0.04    0.50
   4   0  -5    0.11    0.26
   3   0  -5    0.10    0.18
   3   0  -5    0.20    0.21
  -3   0   5    0.46    0.37
   2   0  -5    0.14    0.14
   2   0  -5    0.09    0.12
   1   0  -5    0.30    0.19
   0   0  -5    0.06    0.13
   0   0   5   -0.16    0.37
   0   0  -5   -0.18    0.34
   0   0   5    0.03    0.10
   2   0   5    0.03    0.32
   2   0   5    0.02    0.17
  -2   0  -5    0.16    0.16
  -3   0  -5    0.04    0.35
   3   0   5    0.51    0.47
   3   0   5   -0.06    0.24
  -4   0  -5    0.78    0.53
   4   0   5    0.03    0.32
  -5   0  -5    0.61    0.62
  -6   0  -5    1.12    0.90
  -7   0  -5    2.33    1.18
  -8   0  -5    0.75    1.37
  -8  -1   5    4.77    1.53
   8  -1  -5    4.48    1.52
  -8   1   5    3.30    1.53
   8   1  -5    5.09    1.50
   7  -1  -5    4.57    1.29
  -7  -1   5    4.62    1.26
   7   1  -5    5.70    1.20
  -7   1   5    3.22    1.29
  -6  -1   5    3.96    1.00
  -6   1   5    3.83    1.08
  -5  -1   5   58.75    2.61
  -5   1   5   59.09    2.66
   4  -1  -5   15.20    0.86
  -4  -1   5   14.48    1.04
  -4   1   5   13.56    1.00
  -3  -1   5  201.27    6.97
   3  -1  -5  205.09    7.14
   3  -1  -5  208.40    7.05
  -3   1   5  207.30    7.01
   2  -1  -5   21.50    0.92
   2  -1  -5   18.45    0.86
   1  -1  -5  171.02    5.71
   1  -1  -5  164.06    5.71
   1   1  -5  161.68    5.58
   1   1  -5  171.80    5.61
  -1   1   5  163.67    5.71
   0  -1   5  226.41    7.66
   0  -1   5  219.22    7.40
   0  -1  -5  223.27    7.46
   0  -1  -5  211.33    7.67
   0   1  -5  218.25    7.50
   0   1   5  217.91    7.44
   0   1  -5  211.85    7.58
   0   1   5  230.24    7.71
  -1  -1  -5    0.74    0.26
   1  -1   5    1.23    0.39
  -1   1  -5    0.95    0.45
   2  -1   5  408.24   13.95
   2  -1   5  398.07   13.74
   2   1   5  427.98   13.78
  -2   1  -5  411.88   13.78
  -2   1  -5  406.87   13.67
  -2   1  -5  402.12   11.20
   2   1   5  402.00   13.69
   3  -1   5    0.23    0.29
  -3  -1  -5    0.27    0.38
   3   1   5    0.23    0.39
   3   1   5    0.36    0.23
  -3   1  -5    0.29    0.25
  -3   1  -5   -0.13    0.37
  -4  -1  -5  179.86    6.39
   4   1   5  186.56    6.25
  -4   1  -5  175.05    6.35
  -5  -1  -5    4.90    0.87
  -6  -1  -5   29.83    2.09
  -6   1  -5   25.73    1.85
  -7  -1  -5   28.45    2.40
  -7   1  -5   30.82    2.35
  -8  -1  -5    0.18    1.43
  -8   1  -5    1.27    1.34
  -8  -2   5    3.10    1.47
   8  -2  -5    3.71    1.57
  -8   2   5    3.28    1.60
   8   2  -5    4.66    1.48
   7  -2  -5   11.08    1.65
  -7  -2   5   10.17    1.49
  -7   2   5    8.12    1.53
   7   2  -5   10.33    1.36
  -6  -2   5    2.81    0.97
   6  -2  -5    1.38    0.97
  -6   2   5    1.83    0.98
  -5  -2   5   26.89    1.61
  -5   2   5   25.77    1.68
   4  -2  -5   10.66    0.87
  -4  -2   5    8.55    0.87
  -4   2   5    8.89    0.87
  -3  -2   5    0.68    0.40
   3  -2  -5    1.04    0.42
  -3   2   5    1.22    0.42
   2  -2  -5   34.75    1.54
   2  -2  -5   35.23    1.46
  -2   2   5   34.96    1.34
  -2   2   5   34.81    1.11
   1   2  -5    3.69    0.23
  -1   2   5    5.16    0.49
   0  -2  -5   10.08    0.99
   0  -2   5    8.60    0.88
   0  -2  -5    8.89    0.64
   0  -2   5    8.84    0.48
   0   2   5    9.16    0.61
   0   2  -5    8.77    0.48
   0   2  -5    8.40    0.73
   0   2   5    8.78    0.94
   1  -2   5   25.99    1.28
   1  -2   5   24.19    1.03
   1   2   5   24.34    1.08
  -1   2  -5   25.97    1.02
  -1   2  -5   23.91    1.35
   1   2   5   24.67    1.04
   2  -2   5    1.71    0.52
   2   2   5    2.51    0.30
   2   2   5    2.61    0.35
  -2   2  -5    2.11    0.33
  -2   2  -5    1.66    0.57
  -3  -2  -5   14.85    0.97
   3  -2   5   12.15    0.81
  -3   2  -5   12.37    0.83
   3   2   5   12.90    0.65
  -3   2  -5   12.84    0.74
   3   2   5   13.24    0.76
  -4  -2  -5    0.31    0.48
   4   2   5    0.57    0.30
  -4   2  -5    0.03    0.53
  -4   2  -5    0.10    0.26
  -5  -2  -5    6.95    1.00
  -5   2  -5    6.92    1.00
  -6  -2  -5   17.18    1.72
  -6   2  -5   10.49    1.33
  -7  -2  -5    1.16    1.19
  -7   2  -5    2.68    1.19
  -8  -2  -5    1.23    1.50
  -8   2  -5    2.78    1.49
   8  -3  -5   10.23    1.90
   8   3  -5   14.16    1.80
  -8   3   5    6.08    1.80
  -7  -3   5    1.66    1.13
   7  -3  -5    1.96    1.32
  -7   3   5    2.01    1.33
   7   3  -5    5.11    1.09
  -6  -3   5    3.20    0.96
   6  -3  -5    2.42    0.98
  -6   3   5    1.72    0.94
  -5  -3   5   61.28    2.68
   5  -3  -5   61.35    2.82
  -5   3   5   63.61    2.82
   4  -3  -5    5.45    0.78
  -4  -3   5    6.17    0.73
  -4   3   5    5.99    0.46
  -4   3   5    5.93    0.76
   3  -3  -5  107.35    3.99
   3  -3  -5  113.67    4.11
  -3  -3   5  109.37    3.87
  -3   3   5  109.83    3.99
  -3   3   5  110.32    3.20
   2  -3  -5   31.96    1.49
   2  -3  -5   33.58    1.68
   2  -3  -5   31.46    1.42
  -2   3   5   33.00    1.43
  -2   3   5   32.32    1.12
   1  -3  -5   63.99    2.58
   1  -3  -5   71.49    2.71
  -1   3   5   66.54    2.62
  -1   3   5   67.70    2.62
   1   3  -5   71.76    2.47
   1   3  -5   65.42    2.37
   0  -3  -5    6.55    0.66
   0  -3  -5    6.72    0.93
   0  -3   5    8.16    0.87
   0   3   5    6.45    0.64
   0   3  -5    6.52    0.46
   0   3  -5    6.69    0.73
   1  -3   5   28.05    1.17
   1  -3   5   24.55    1.40
  -1   3  -5   25.87    1.11
  -1   3  -5   27.26    1.52
   1   3   5   24.27    1.16
   2  -3   5  403.39   13.87
   2  -3   5  393.80   13.58
  -2  -3  -5  389.00   13.37
   2   3   5  415.33   13.46
  -2   3  -5  392.01   13.95
  -2   3  -5  408.97   11.10
   2   3   5  393.09   13.46
   3  -3   5   33.85    1.57
  -3  -3  -5   34.66    1.63
  -3   3  -5   33.48    1.54
   3   3   5   33.67    1.35
   3   3   5   36.65    1.39
  -3   3  -5   33.02    1.37
  -4  -3  -5   69.22    2.81
   4   3   5   67.30    2.44
  -4   3  -5   63.69    2.24
  -4   3  -5   64.62    2.70
  -5  -3  -5   30.96    1.86
  -5   3  -5   29.29    1.79
  -6  -3  -5   15.03    1.70
  -6   3  -5    9.99    1.32
  -7  -3  -5    4.37    1.44
  -7   3  -5    4.43    1.32
   7  -4  -5   44.77    3.12
  -7   4   5   44.07    2.99
   6  -4  -5    5.54    1.23
  -6   4   5    7.00    1.29
  -5  -4   5   11.57    1.18
   5  -4  -5   13.57    1.45
  -5   4   5   11.98    0.55
  -5   4   5   13.25    1.39
   4  -4  -5    0.83    0.59
  -4  -4   5    0.29    0.49
  -4   4   5    0.79    0.56
  -4   4   5    1.16    0.37
   3  -4  -5  145.80    5.25
  -3  -4   5  148.60    5.16
   3  -4  -5  151.62    5.48
  -3   4   5  148.00    5.27
  -3   4   5  147.49    4.29
   2  -4  -5   99.58    3.82
   2  -4  -5  102.82    4.05
   2  -4  -5   99.15    3.63
  -2   4   5   99.99    3.06
  -2   4   5  100.47    3.72
  -2   4   5  104.06    3.87
  -1  -4   5  100.94    2.87
   1  -4  -5  101.24    3.90
  -1   4   5  102.05    3.77
  -1   4   5   97.68    3.81
   1   4  -5  103.73    3.53
   1   4  -5   96.71    3.61
   0  -4  -5  146.44    5.65
   0  -4  -5  148.56    4.22
   0  -4   5  150.19    4.19
   0   4  -5  147.04    5.12
   0   4   5  139.89    5.29
   0   4  -5  147.37    5.35
   0   4   5  145.68    5.24
  -1  -4  -5    7.13    0.61
   1  -4   5    6.65    0.66
  -1   4  -5    7.16    0.60
   1   4   5    6.80    0.70
   1   4   5    7.26    0.85
  -1   4  -5    7.04    0.93
   2  -4   5    1.33    0.45
   2   4   5    0.97    0.40
  -2   4  -5    2.42    0.85
  -3  -4  -5    1.01    0.50
   3  -4   5    0.30    0.45
  -3   4  -5    0.15    0.43
  -3   4  -5   -0.19    0.40
   3   4   5    0.11    0.34
  -4  -4  -5    1.78    0.64
  -4   4  -5    2.24    0.65
  -4   4  -5    0.31    0.50
  -5  -4  -5    5.71    1.02
  -5   4  -5    4.46    0.53
  -5   4  -5    3.90    0.88
  -6  -4  -5   67.59    3.40
  -6   4  -5   65.96    3.18
  -7  -4  -5    2.20    1.37
  -7   4  -5    1.13    1.18
   7  -5  -5    9.75    1.82
  -7   5   5    8.23    1.83
   6  -5  -5    0.41    1.17
  -6   5   5    0.67    1.15
   5  -5  -5    1.73    0.90
  -5   5   5    1.27    0.90
  -5   5   5    1.42    0.43
   4  -5  -5    0.12    0.66
  -4   5   5    0.37    0.68
  -4   5   5    0.06    0.41
   3  -5  -5   60.93    2.70
   3  -5  -5   59.19    2.50
  -3   5   5   61.08    2.57
  -3   5   5   60.48    2.04
   2  -5  -5  100.80    3.90
   2  -5  -5   97.45    3.66
   2   5  -5   99.50    3.58
   2   5  -5  104.25    3.53
  -2   5   5   97.29    3.11
  -1  -5   5    0.20    0.28
   1  -5  -5    0.43    0.42
   1   5  -5    0.27    0.32
   1   5  -5    0.07    0.48
  -1   5   5   -0.05    0.53
   0  -5  -5  151.71    4.46
   0  -5   5  157.69    4.43
   0  -5   5  143.12    5.46
   0   5   5  159.87    5.54
   0   5   5  155.17    5.65
   0   5  -5  150.63    5.40
   0   5  -5  154.16    5.68
   1  -5   5   20.00    1.14
   1  -5   5   21.75    1.02
  -1  -5  -5   21.61    1.03
  -1   5  -5   20.30    1.56
   1   5   5   19.64    1.24
   1   5   5   18.99    1.34
   2  -5   5    5.83    0.66
   2  -5   5    7.34    0.87
  -2   5  -5    5.38    0.65
   2   5   5    5.92    0.73
   3  -5   5    8.81    0.98
  -3  -5  -5    8.91    0.90
   3   5   5    6.99    0.75
  -3   5  -5    7.10    0.73
  -3   5  -5    8.75    0.81
  -4  -5  -5   35.10    1.83
  -4   5  -5   29.20    1.60
  -4   5  -5   34.76    1.71
  -5  -5  -5   29.01    1.99
  -5   5  -5   27.71    1.88
  -5   5  -5   30.66    1.48
  -6  -5  -5    2.41    1.11
  -6   5  -5    0.77    1.01
  -7   5  -5   16.83    1.93
   7  -6  -5   39.48    2.99
  -7   6   5   37.00    3.11
   6  -6  -5   18.75    1.90
  -6   6   5   16.38    1.94
   5  -6  -5   84.15    3.64
  -5   6   5   85.78    3.76
  -5   6   5   78.98    2.78
   4  -6  -5   36.52    2.00
  -4   6   5   33.49    1.48
  -4   6   5   36.12    2.10
   3  -6  -5    4.77    0.81
   3  -6  -5    4.83    0.95
  -3   6   5    5.54    1.00
   3   6  -5    4.97    0.62
  -3   6   5    4.01    0.61
   2  -6  -5   41.66    1.96
   2  -6  -5   43.58    1.77
   2  -6  -5   40.10    2.09
  -2   6   5   42.22    1.67
   2   6  -5   43.83    1.90
  -1  -6   5    8.25    0.68
   1  -6  -5    7.67    1.43
   1  -6  -5    9.27    0.85
  -1   6   5    8.42    1.02
  -1   6   5   10.52    0.79
   1   6  -5    8.30    0.99
   0  -6   5   90.31    2.81
   0  -6  -5   89.20    2.84
   0   6   5   90.44    3.52
   0   6  -5   91.01    3.75
   0   6   5   89.93    3.70
   1  -6   5   40.33    1.60
  -1  -6  -5   41.17    1.62
  -1   6  -5   43.37    2.36
   1   6   5   39.81    2.03
   2  -6   5   79.59    2.63
   2   6   5   73.95    3.09
  -2   6  -5   75.40    2.63
  -3   6  -5   10.77    1.02
  -3   6  -5   11.54    0.94
  -4   6  -5   54.58    2.43
  -4   6  -5   65.61    2.65
  -5   6  -5   10.55    1.23
  -5   6  -5   11.38    1.13
   6  -6   5    3.48    1.09
  -6   6  -5   -0.21    0.98
   7  -6   5    6.17    1.55
  -7   6  -5    0.94    1.21
   7  -7  -5   12.21    2.00
  -7   7   5    6.72    2.06
   6  -7  -5    0.23    1.28
  -6   7   5   -1.08    1.43
   5  -7  -5   27.53    2.03
  -5   7   5   21.78    1.37
  -5   7   5   25.26    2.28
   4  -7  -5   12.87    1.34
  -4   7   5   14.48    1.62
  -4   7   5   13.06    1.07
   3  -7  -5   42.25    2.14
  -3   7   5   43.34    1.79
   2  -7  -5    3.44    0.70
  -2   7   5    2.51    0.60
  -1  -7   5   10.32    0.78
  -1   7   5   10.38    1.24
   0  -7  -5   64.95    2.32
   0  -7   5   70.29    2.31
   0   7  -5   65.63    3.12
   0   7   5   71.38    3.13
   1  -7   5    0.14    0.50
  -1  -7  -5    1.18    0.51
  -1   7  -5    0.84    0.86
   1   7   5    0.90    0.69
   2  -7   5   17.26    1.20
  -2   7  -5   20.76    1.23
  -3   7  -5   50.16    2.12
  -4   7  -5   15.57    1.43
  -5   7  -5    4.11    0.92
  -6   7  -5    1.45    0.48
   6  -8  -5   14.83    2.06
  -6   8   5   14.14    1.05
  -5   8   5   12.50    1.24
  -4   8   5    8.73    0.93
  -3   8   5   33.20    1.65
   2  -8  -5  108.50    3.70
  -2   8   5  113.07    3.67
  -1  -8   5   92.90    2.96
   1  -8  -5   90.56    3.07
   0  -8   5   74.69    2.56
   0  -8  -5   75.87    2.61
   0   8   5   75.27    3.48
   1  -8   5    4.76    0.75
  -1  -8  -5    5.41    0.75
   2  -8   5    1.81    0.67
  -3   8  -5    5.90    0.95
  -4   8  -5   -0.23    0.79
  -5   8  -5   17.29    1.61
  -6   8  -5   41.02    1.88
  -6   9   5    2.05    0.74
  -5   9   5   44.87    2.14
  -4   9   5    1.35    0.73
  -3   9   5    0.53    0.68
   2  -9  -5   51.42    2.24
  -1  -9   5   22.76    1.18
   1  -9  -5   23.40    1.41
   0  -9   5    2.57    0.60
   0  -9  -5    2.20    0.61
   1  -9   5   38.44    1.81
  -1  -9  -5   39.07    1.70
   2  -9   5  157.00    5.06
  -3   9  -5    5.09    0.97
  -4   9  -5    3.34    1.05
  -5   9  -5   31.63    2.07
  -6   9  -5    5.82    0.97
  -5  10   5   18.06    1.58
  -4  10   5    8.92    1.06
  -3  10   5   36.30    1.91
   2 -10  -5    3.83    0.98
  -1 -10   5   10.68    0.80
   1 -10  -5   12.87    1.26
   0 -10  -5   35.53    1.75
   0 -10   5   39.14    1.72
   1 -10   5   67.05    2.56
  -1 -10  -5   60.63    2.27
   2 -10   5   24.05    1.70
  -3  10  -5    9.11    1.20
  -4  10  -5   38.25    2.28
  -5  10  -5    5.57    1.16
  -5  11   5    2.61    0.99
  -4  11   5    9.67    1.15
   3 -11  -5   38.89    2.30
   2 -11  -5   10.49    1.28
   1 -11  -5   27.48    1.71
   0 -11  -5  106.19    3.67
   0 -11   5  109.46    3.62
   1 -11   5    0.37    0.80
  -1 -11  -5   -0.28    0.37
   2 -11   5   22.06    1.80
   3 -11   5   20.35    1.88
  -4  11  -5   41.78    2.41
  -5  11  -5    2.95    1.04
  -4  12   5    7.97    1.14
   3 -12  -5   -0.78    1.08
   2 -12  -5    1.59    1.02
   1 -12  -5   44.10    2.20
   0 -12  -5   19.91    1.42
   0 -12   5   21.16    1.40
   1 -12   5    3.07    0.94
   2 -12   5    4.18    1.16
   3 -12   5    3.24    1.20
  -4  12  -5    6.90    1.22
   3 -13  -5   11.92    1.55
   2 -13  -5   12.74    1.46
   1 -13  -5   14.63    1.37
   0 -13   5    0.45    0.66
   0 -13  -5   -0.08    0.68
   1 -13   5    2.27    0.94
   2 -13   5   46.00    2.45
   3 -13   5    2.95    1.26
   2 -14  -5    2.33    1.18
   1 -14  -5    3.76    1.04
   1 -14   5   18.03    1.63
   2 -14   5    6.05    1.29
   8   0  -6    8.26    1.71
  -8   0   6    7.78    1.75
  -7   0   6  100.22    4.49
   7   0  -6  101.60    4.43
  -6   0   6    3.57    1.03
  -5   0   6    0.43    0.60
  -4   0   6  227.16    7.95
   4   0  -6  234.15    7.89
   3   0  -6  102.67    3.69
   3   0  -6  109.12    3.69
  -3   0   6  108.80    3.83
   2   0  -6   39.05    1.53
   2   0  -6   45.95    1.52
  -1   0   6  103.58    3.49
  -1   0   6  102.92    3.54
   1   0  -6  103.74    3.54
   0   0   6  889.82   30.68
   0   0  -6  912.63   30.96
   0   0  -6  894.75   31.47
   0   0   6  949.54   31.06
  -1   0  -6   69.37    2.48
   1   0   6   74.40    2.65
   1   0   6   68.32    2.49
  -2   0  -6  107.69    3.02
   2   0   6  105.35    3.73
   2   0   6  108.68    3.92
  -3   0  -6  366.63   12.35
   3   0   6  375.74   12.89
   3   0   6  368.64   12.52
  -4   0  -6    1.25    0.57
  -5   0  -6    3.77    0.85
  -6   0  -6   10.16    1.27
  -7   0  -6   35.49    2.55
  -8   0  -6    3.55    1.55
  -8  -1   6   18.20    2.16
   8  -1  -6   16.01    2.04
  -8   1   6   18.01    2.20
   8   1  -6   20.80    2.36
   7  -1  -6    2.52    1.16
  -7  -1   6    1.98    1.18
   7   1  -6    3.09    1.15
  -7   1   6    2.06    1.18
  -6  -1   6   32.94    2.07
   6  -1  -6   32.53    2.13
  -6   1   6   35.65    2.21
  -5  -1   6    4.50    0.83
  -5   1   6    3.80    0.81
   4  -1  -6   85.34    3.13
  -4  -1   6   83.58    3.21
  -4   1   6   82.65    3.24
  -3  -1   6   86.34    3.09
   3  -1  -6   80.90    3.10
   3  -1  -6   84.96    3.05
  -3   1   6   84.42    3.11
   2  -1  -6   23.75    1.06
   2  -1  -6   22.58    1.04
  -2   1   6   27.10    0.79
   1  -1  -6  124.02    4.36
  -1   1   6  125.06    4.42
   1   1  -6  132.16    4.25
   1   1  -6  121.06    4.35
   0  -1   6   19.03    0.78
   0  -1  -6   18.26    1.23
   0  -1  -6   19.51    0.86
   0  -1   6   20.03    1.20
   0   1   6   19.70    0.83
   0   1  -6   19.38    0.77
   0   1  -6   18.46    1.08
   0   1   6   18.81    1.27
  -1  -1  -6   97.28    3.35
   1  -1   6   93.78    3.36
   1  -1   6   97.64    3.55
  -1  -1  -6  100.37    3.51
  -1   1  -6   97.47    3.35
   1   1   6   93.80    3.36
   1   1   6   94.87    3.46
  -1   1  -6   96.83    3.68
   2  -1   6   -0.12    0.21
   2  -1   6    0.09    0.41
  -2  -1  -6    0.38    0.12
  -2   1  -6    0.08    0.36
   2   1   6    0.20    0.21
  -2   1  -6    0.25    0.18
   2   1   6    0.05    0.33
  -3  -1  -6   18.88    1.11
   3  -1   6   18.43    0.94
  -3   1  -6   17.85    0.80
  -3   1  -6   18.89    1.08
   3   1   6   19.52    1.09
   3   1   6   19.61    0.86
  -4  -1  -6   47.34    2.06
   4   1   6   45.56    1.80
  -4   1  -6   42.24    2.00
  -5  -1  -6    5.94    0.95
  -5   1  -6    4.86    0.84
  -6  -1  -6   10.51    1.42
  -6   1  -6   10.45    1.34
  -7  -1  -6   13.05    1.73
  -7   1  -6   11.64    1.65
  -8  -1  -6    8.18    1.90
  -8   1  -6    8.02    1.72
  -8  -2   6    1.65    1.45
   8  -2  -6    3.24    1.53
   8   2  -6    3.40    1.45
  -8   2   6    1.62    1.52
   7  -2  -6   13.30    1.76
  -7  -2   6   15.78    1.74
  -7   2   6   13.59    1.80
   7   2  -6   16.88    1.78
   6  -2  -6    5.28    1.20
  -6  -2   6    6.02    1.11
  -6   2   6    6.01    1.22
   5  -2  -6   75.46    3.26
  -5  -2   6   79.23    3.21
  -5   2   6   79.26    3.29
  -4  -2   6   15.21    1.04
   4  -2  -6   13.94    1.08
  -4   2   6   14.47    1.05
   3  -2  -6    6.41    0.77
  -3  -2   6    6.46    0.65
   3  -2  -6    5.76    0.65
  -3   2   6    7.67    0.78
   2  -2  -6  716.78   24.29
   2  -2  -6  728.23   24.69
  -2   2   6  745.68   19.92
  -2   2   6  692.79   24.19
   1  -2  -6    7.03    0.61
  -1   2   6    4.72    0.55
   1   2  -6    4.72    0.31
  -1   2   6    6.35    0.49
   1   2  -6    6.59    0.49
   0  -2   6    6.57    0.43
   0  -2   6    6.48    0.82
   0  -2  -6    6.32    0.56
   0  -2  -6    8.52    0.96
   0   2  -6    6.44    0.41
   0   2   6    8.11    0.91
   0   2  -6    6.63    0.70
   0   2   6    6.28    0.53
   1  -2   6   65.59    2.38
   1  -2   6   68.38    2.62
   1   2   6   64.36    2.46
  -1   2  -6   62.35    2.73
   1   2   6   63.00    2.38
  -1   2  -6   68.46    2.37
   2  -2   6   65.45    2.50
  -2  -2  -6   65.16    2.57
   2  -2   6   69.62    2.80
   2   2   6   65.10    2.43
   2   2   6   71.21    2.50
  -3  -2  -6    6.88    0.72
   3  -2   6    5.34    0.63
   3   2   6    6.76    0.68
  -3   2  -6    5.43    0.54
  -3   2  -6    5.42    0.63
   3   2   6    5.56    0.49
  -4  -2  -6   41.58    1.98
   4   2   6   43.73    1.71
  -4   2  -6   40.85    1.45
  -4   2  -6   41.12    1.93
  -5  -2  -6  151.08    5.74
  -5   2  -6  151.66    5.64
  -6  -2  -6   26.47    2.09
  -6   2  -6   25.00    1.93
  -7  -2  -6    8.63    1.62
  -7   2  -6    7.60    1.45
   8  -3  -6    4.20    1.71
  -8   3   6    4.39    1.80
  -7  -3   6    2.47    1.19
   7  -3  -6    2.28    1.35
   7   3  -6    4.82    1.15
  -7   3   6    3.11    1.39
   6  -3  -6   28.03    2.11
  -6  -3   6   26.51    1.86
  -6   3   6   27.13    2.08
  -5  -3   6   60.81    2.67
   5  -3  -6   60.74    2.78
  -5   3   6   60.20    2.78
   4  -3  -6    0.72    0.58
  -4  -3   6    0.57    0.50
  -4   3   6    0.60    0.54
  -4   3   6    0.58    0.25
   3  -3  -6   -0.29    0.53
  -3  -3   6    0.80    0.40
   3  -3  -6    0.34    0.48
  -3   3   6    0.75    0.52
  -3   3   6    0.93    0.29
   2  -3  -6   23.37    1.33
   2  -3  -6   19.47    1.13
   2  -3  -6   18.52    1.08
  -2   3   6   20.10    0.80
  -2   3   6   20.48    1.17
   1  -3  -6  147.35    5.26
  -1   3   6  144.37    5.22
  -1   3   6  142.57    5.17
   1   3  -6  151.53    4.96
   1   3  -6  138.81    5.04
   0  -3  -6   11.73    0.83
   0  -3   6   11.45    1.07
   0  -3  -6    9.99    1.18
   0   3   6   10.50    0.76
   0   3  -6   10.83    0.88
   0   3  -6   11.46    0.62
  -1  -3  -6   25.86    0.96
   1  -3   6   23.88    1.36
   1  -3   6   23.28    1.11
   1   3   6   26.87    1.24
  -1   3  -6   24.48    1.07
   1   3   6   23.49    1.13
  -1   3  -6   23.37    1.49
  -2  -3  -6  407.39   14.17
   2  -3   6  448.82   14.77
   2  -3   6  420.45   14.44
  -2   3  -6  417.47   14.87
   2   3   6  432.27   14.37
   2   3   6  415.90   14.35
  -2   3  -6  433.11   11.81
  -3  -3  -6   20.80    1.23
   3  -3   6   18.51    1.10
  -3   3  -6   18.71    1.09
   3   3   6   18.52    0.92
  -3   3  -6   18.45    1.01
  -4  -3  -6    4.31    0.78
  -4   3  -6    3.25    0.70
  -4   3  -6    2.62    0.54
  -5  -3  -6   21.33    1.62
  -5   3  -6   17.62    1.46
  -6  -3  -6   43.76    2.65
  -6   3  -6   43.04    2.45
  -7  -3  -6   14.44    1.96
  -7   3  -6   13.55    1.68
   7  -4  -6   49.71    3.12
  -7   4   6   46.39    3.16
   6  -4  -6    0.64    1.09
  -6   4   6   -0.34    1.00
   5  -4  -6    3.05    0.92
  -5   4   6    2.88    0.88
  -4  -4   6   49.23    2.21
   4  -4  -6   50.17    2.31
  -4   4   6   50.63    2.31
  -4   4   6   50.99    1.71
   3  -4  -6    1.70    0.62
   3  -4  -6    2.14    0.63
  -3   4   6    2.11    0.39
  -3   4   6    2.48    0.67
   2  -4  -6   11.70    0.92
   2  -4  -6    8.77    0.93
   2  -4  -6   12.84    1.21
  -2   4   6    7.43    0.60
  -2   4   6   10.97    1.10
  -1  -4   6    3.46    0.32
   1   4  -6    3.49    0.50
  -1   4   6    2.46    0.52
  -1   4   6    2.56    0.57
   1   4  -6    3.41    0.37
   0  -4  -6  273.34    9.85
   0  -4   6  278.08    7.57
   0  -4  -6  275.01    7.60
   0   4  -6  267.89    9.29
   0   4  -6  270.12    9.51
   0   4   6  266.01    9.45
   1  -4   6   11.42    0.79
  -1   4  -6   10.36    1.21
   1   4   6   11.16    0.84
  -2  -4  -6   31.66    1.55
   2  -4   6   28.14    1.40
  -2   4  -6   27.89    1.96
  -2   4  -6   28.63    1.24
   2   4   6   25.40    1.31
   3  -4   6  101.90    3.80
  -3  -4  -6   95.00    3.77
  -3   4  -6   99.58    3.19
  -3   4  -6   97.88    3.61
   3   4   6  100.89    3.60
  -4  -4  -6    6.78    0.94
  -4   4  -6    6.24    0.82
  -4   4  -6    5.41    0.74
  -5  -4  -6    0.48    0.75
  -5   4  -6    0.04    0.72
  -5   4  -6    0.60    0.39
  -6  -4  -6    1.82    1.04
  -6   4  -6    0.82    0.96
  -7  -4  -6   17.76    2.19
  -7   4  -6   16.89    1.82
   7  -5  -6    4.44    1.61
  -7   5   6    1.32    1.57
   6  -5  -6    1.45    1.20
  -6   5   6   -1.72    1.10
   5  -5  -6   31.08    2.03
  -5   5   6   29.73    1.28
  -5   5   6   32.58    2.08
   4  -5  -6   40.11    2.06
  -4   5   6   41.23    1.55
  -4   5   6   40.15    2.10
   3  -5  -6   91.64    3.53
   3  -5  -6   93.05    3.75
  -3   5   6   91.77    3.65
  -3   5   6   92.33    2.86
   2  -5  -6   37.80    1.76
   2  -5  -6   25.82    1.36
   2   5  -6   31.42    1.28
  -2   5   6   27.80    1.27
   2   5  -6   34.67    1.41
   1  -5  -6    0.87    0.42
   1  -5  -6    1.14    0.84
  -1  -5   6    1.35    0.32
  -1   5   6    1.24    0.61
   1   5  -6    1.33    0.54
   1   5  -6    0.77    0.32
   0  -5   6  220.60    8.23
   0  -5   6  248.34    6.69
   0  -5  -6  236.02    6.72
   0   5  -6  241.74    8.19
   0   5  -6  237.86    8.47
   0   5   6  245.56    8.34
   0   5   6  227.58    8.39
  -1  -5  -6   16.82    0.96
   1  -5   6   16.21    0.91
   1  -5   6   17.20    1.03
  -1   5  -6   15.92    1.48
   1   5   6   16.14    1.27
   1   5   6   16.39    1.16
   2  -5   6   66.48    2.74
   2  -5   6   66.17    2.28
  -2  -5  -6   68.10    2.79
  -2   5  -6   70.06    2.34
   2   5   6   63.75    2.68
   3  -5   6    7.47    0.90
  -3  -5  -6    6.88    0.85
  -3   5  -6    6.58    0.71
  -3   5  -6    6.28    0.76
   3   5   6    7.19    0.75
  -4  -5  -6  117.81    4.67
  -4   5  -6  129.24    4.51
  -4   5  -6  115.22    3.98
  -5  -5  -6   60.30    2.91
  -5   5  -6   57.86    2.29
  -5   5  -6   55.50    2.71
  -6  -5  -6   -0.03    0.97
  -6   5  -6   -0.48    0.94
  -7   5  -6   38.98    2.54
   7  -6  -6    3.48    1.64
  -7   6   6    2.27    1.75
   6  -6  -6    0.41    1.26
  -6   6   6   -0.69    1.31
   5  -6  -6   10.91    1.40
  -5   6   6   10.86    1.53
  -5   6   6    9.37    0.86
   4  -6  -6   -0.05    0.82
  -4   6   6   -0.36    0.45
  -4   6   6    0.08    0.92
   3  -6  -6   32.96    1.80
   3  -6  -6   32.69    1.97
  -3   6   6   32.95    1.40
   3   6  -6   36.52    1.55
   2  -6  -6   10.05    0.91
   2  -6  -6   10.32    1.05
   2   6  -6    9.96    0.93
  -2   6   6    8.93    0.80
   1  -6  -6   15.71    1.74
  -1  -6   6   15.22    0.83
   1  -6  -6   15.53    0.97
   1   6  -6   14.32    1.21
  -1   6   6   16.81    0.95
  -1   6   6   15.98    1.32
   0  -6   6    1.18    0.41
   0  -6  -6    1.30    0.46
   0   6   6    1.83    0.68
   0   6  -6    1.41    0.76
   0   6   6    1.81    0.72
  -1  -6  -6    3.57    0.59
   1  -6   6    3.47    0.57
  -1  -6  -6    6.55    0.92
  -1   6  -6    3.86    1.01
   1   6   6    3.80    0.76
  -2  -6  -6    8.60    0.97
   2  -6   6    9.27    0.86
  -2   6  -6    7.68    0.80
   2   6   6    8.29    0.94
  -3  -6  -6    2.15    0.64
  -3   6  -6    1.80    0.63
  -4   6  -6    9.65    1.08
  -4   6  -6    9.97    1.09
  -5   6  -6   14.56    1.32
  -5   6  -6   13.10    1.36
  -6   6  -6    0.59    1.01
   7  -6   6    4.76    1.40
  -7   6  -6   -0.56    1.12
   7  -7  -6    4.87    1.84
   6  -7  -6   17.57    1.91
  -6   7   6   14.96    2.16
   5  -7  -6   35.76    2.28
  -5   7   6   34.17    2.59
  -5   7   6   31.28    1.62
   4  -7  -6    2.36    1.04
  -4   7   6    1.99    0.60
   3  -7  -6   17.40    1.50
  -3   7   6   18.31    1.10
   2  -7  -6    1.18    0.89
  -1  -7   6   13.30    0.83
   1  -7  -6   11.99    0.98
   1   7  -6   12.57    1.27
  -1   7   6   12.68    1.31
   0  -7  -6  146.68    4.52
   0  -7   6  154.43    4.49
   0   7  -6  145.24    5.84
   0   7   6  152.84    5.79
  -1  -7  -6   16.45    1.09
   1  -7   6   14.93    1.04
   1   7   6   15.49    1.39
  -1   7  -6   14.59    1.65
   2  -7   6  143.72    4.62
  -2   7  -6  154.20    4.67
  -3   7  -6    2.63    0.74
  -4   7  -6   23.04    1.64
  -5   7  -6   27.34    1.83
  -6   7  -6    3.97    0.61
   6  -8  -6    3.21    1.58
  -6   8   6    4.63    0.69
   5  -8  -6    7.29    1.48
  -5   8   6    5.92    0.91
  -4   8   6    3.09    0.70
  -3   8   6   11.04    1.06
   2  -8  -6   23.18    1.48
  -2   8   6   23.83    1.34
   1  -8  -6    2.54    0.64
  -1  -8   6    3.10    0.56
   0  -8  -6    2.36    0.58
   0  -8   6    2.35    0.55
   0   8   6    1.59    0.83
   1  -8   6   29.72    1.46
  -1  -8  -6   25.02    1.39
   2  -8   6    4.93    0.80
  -3   8  -6    3.72    0.83
  -4   8  -6   -0.02    0.85
  -5   8  -6    5.74    1.11
  -6   8  -6    0.71    0.64
  -6   9   6   11.14    1.08
  -5   9   6   12.30    1.22
  -4   9   6    4.26    0.83
  -3   9   6   50.02    2.10
   2  -9  -6   11.18    1.18
  -1  -9   6    7.86    0.74
   1  -9  -6    7.18    0.91
   0  -9  -6   27.73    1.48
   0  -9   6   31.42    1.45
   1  -9   6    0.58    0.65
  -1  -9  -6    0.03    0.55
   2  -9   6   90.64    3.29
  -3   9  -6    1.11    0.80
  -4   9  -6   20.21    1.81
  -5   9  -6    3.93    1.04
  -6   9  -6    2.53    0.82
  -5  10   6   12.22    1.27
  -4  10   6   32.67    1.79
  -3  10   6    8.60    1.01
   2 -10  -6   28.04    1.79
  -1 -10   6    7.50    0.72
   1 -10  -6    7.46    0.98
   0 -10   6   18.70    1.24
   0 -10  -6   17.13    1.28
  -1 -10  -6    9.98    0.96
   1 -10   6   11.58    1.14
   2 -10   6    4.53    1.00
  -3  10  -6   13.41    1.38
  -4  10  -6   -0.16    0.93
  -5  10  -6    6.52    1.20
  -5  11   6   -0.91    0.83
  -4  11   6   13.33    1.30
   3 -11  -6   11.71    1.48
   2 -11  -6    0.71    0.94
   1 -11  -6    2.63    0.87
   0 -11   6   14.04    1.18
   0 -11  -6   10.73    1.09
   1 -11   6   19.62    1.54
  -1 -11  -6   18.31    0.96
   2 -11   6    4.54    1.10
   3 -11   6    2.07    1.05
  -4  11  -6    5.93    1.25
  -5  11  -6    0.66    0.98
  -4  12   6   21.50    1.70
   3 -12  -6    0.72    1.13
   2 -12  -6   12.72    1.43
   1 -12  -6    1.52    0.89
   0 -12   6   74.83    2.74
   0 -12  -6   71.40    2.80
   1 -12   6    5.85    1.06
   2 -12   6    3.99    1.14
   3 -12   6   21.40    1.89
  -4  12  -6    2.48    1.09
   3 -13  -6    9.40    1.50
   2 -13  -6    3.63    1.20
   1 -13  -6    3.86    1.04
   0 -13  -6    1.02    0.74
   0 -13   6    0.46    0.65
   1 -13   6   24.28    1.75
   2 -13   6    1.36    1.08
   3 -13   6    1.43    1.19
   2 -14  -6   56.85    2.81
   1 -14  -6    1.78    0.96
   1 -14   6    4.19    1.01
   2 -14   6    6.98    1.42
  -8   0   7    0.59    1.44
   8   0  -7    2.09    1.45
   7   0  -7    0.50    1.13
  -7   0   7    0.58    1.15
  -6   0   7    0.16    0.89
   6   0  -7   -0.04    0.86
  -5   0   7    0.62    0.69
   4   0  -7   -0.18    0.29
  -4   0   7    0.44    0.52
  -3   0   7    0.20    0.36
   3   0  -7    0.13    0.25
   3   0  -7    0.28    0.24
   2   0  -7    0.02    0.21
   2   0  -7   -0.08    0.17
   1   0  -7    0.87    0.35
   0   0  -7    2.54    0.65
   0   0   7    3.25    0.33
   0   0   7    3.09    0.73
  -1   0  -7    4.83    0.37
   1   0   7    3.52    0.34
  -2   0  -7    0.25    0.18
  -2   0  -7    0.54    0.34
   2   0   7   -0.03    0.39
   2   0   7    0.11    0.20
   3   0   7    0.21    0.29
  -3   0  -7    0.20    0.42
  -3   0  -7   -0.04    0.20
  -4   0  -7    1.14    0.56
  -5   0  -7    0.27    0.69
  -6   0  -7    2.32    1.00
  -7   0  -7    1.10    1.15
  -8  -1   7   17.95    2.20
   8  -1  -7   15.98    2.04
   8   1  -7   19.12    2.07
  -8   1   7   16.17    2.22
  -7  -1   7    5.71    1.36
   7  -1  -7    5.54    1.40
  -7   1   7    6.76    1.47
   7   1  -7    9.01    1.42
  -6  -1   7   23.01    1.78
   6  -1  -7   18.96    1.77
   6   1  -7   21.63    1.67
  -6   1   7   20.84    1.85
   5  -1  -7   34.33    1.92
  -5  -1   7   34.49    1.85
  -5   1   7   34.18    1.92
   4  -1  -7   29.33    1.35
  -4  -1   7   27.68    1.42
  -4   1   7   27.65    1.51
   4   1  -7   29.27    1.10
   3  -1  -7    9.33    0.85
   3  -1  -7    9.58    0.73
   3  -1  -7    9.54    0.68
  -3  -1   7   10.06    0.78
  -3   1   7    9.70    0.35
  -3   1   7    9.77    0.84
   2  -1  -7   12.09    0.69
   2   1  -7   11.51    0.45
   1  -1  -7   16.35    0.72
  -1   1   7   10.36    0.77
   1   1  -7   14.96    0.79
   1   1  -7   12.68    0.56
   0  -1   7  284.87   10.10
   0  -1  -7  294.57    9.83
   0  -1  -7  280.14   10.12
   0  -1   7  290.74    9.76
   0   1   7  296.62   10.16
   0   1   7  286.58    9.80
   0   1  -7  287.86   10.03
   0   1  -7  296.09    9.77
   1  -1   7    1.26    0.25
  -1  -1  -7    1.11    0.52
  -1  -1  -7    1.67    0.29
   1  -1   7    1.34    0.45
  -1   1  -7    1.46    0.25
   1   1   7    1.27    0.26
   1   1   7    1.49    0.40
  -1   1  -7    1.70    0.61
  -2  -1  -7  112.35    3.93
  -2  -1  -7  106.37    3.08
   2  -1   7  107.85    3.88
   2  -1   7  115.57    4.15
  -2   1  -7  108.57    3.16
  -2   1  -7  107.41    4.08
   2   1   7  107.59    3.85
   2   1   7  115.32    4.00
  -3  -1  -7    3.26    0.54
   3  -1   7    3.20    0.45
  -3   1  -7    3.15    0.52
  -3   1  -7    3.55    0.42
   3   1   7    3.37    0.41
  -4  -1  -7    0.71    0.57
  -4   1  -7    0.28    0.47
  -5  -1  -7  113.21    4.37
  -5   1  -7  103.32    4.21
  -6  -1  -7    2.42    0.93
  -6   1  -7    2.00    0.95
  -7  -1  -7   45.67    2.97
  -7   1  -7   42.87    2.80
  -8  -2   7    3.59    1.51
   8  -2  -7    2.85    1.59
  -8   2   7    1.59    1.64
   8   2  -7    3.55    1.49
   7  -2  -7    5.07    1.43
  -7  -2   7    3.66    1.24
  -7   2   7    3.73    1.43
   7   2  -7    6.51    1.27
  -6  -2   7   28.04    1.99
   6  -2  -7   28.21    2.06
  -6   2   7   30.42    2.13
  -5  -2   7    0.72    0.69
   5  -2  -7   -0.34    0.70
  -5   2   7    0.58    0.67
   4  -2  -7   10.94    1.10
  -4  -2   7   13.01    1.02
  -4   2   7   13.70    1.11
  -3  -2   7    4.81    0.57
   3  -2  -7    5.65    0.63
   3  -2  -7    4.67    0.64
  -3   2   7    5.12    0.40
  -3   2   7    4.49    0.61
   2  -2  -7  132.85    4.78
   2  -2  -7  136.12    4.66
   2  -2  -7  133.74    4.84
  -2   2   7  132.04    4.64
  -2   2   7  133.99    3.78
  -2   2   7  137.75    4.72
   1  -2  -7   20.80    1.01
  -1   2   7   16.81    1.03
  -1   2   7   19.11    0.89
   1   2  -7   21.48    0.94
   1   2  -7   16.79    0.75
   0  -2   7   12.12    0.61
   0  -2  -7   13.26    0.76
   0  -2   7   13.09    1.11
   0  -2  -7   11.78    1.12
   0   2   7   13.40    1.14
   0   2   7   12.92    0.72
   0   2  -7   12.55    0.90
   0   2  -7   12.90    0.62
   1  -2   7   31.22    1.54
  -1  -2  -7   30.79    1.26
  -1  -2  -7   32.60    1.45
   1  -2   7   30.03    1.26
   1   2   7   34.38    1.44
  -1   2  -7   29.88    1.23
  -1   2  -7   29.56    1.68
   1   2   7   29.09    1.26
  -2  -2  -7    0.22    0.43
   2  -2   7    0.47    0.56
   2  -2   7    0.32    0.29
  -2  -2  -7    0.44    0.13
   2   2   7    0.31    0.29
  -2   2  -7    0.42    0.24
   2   2   7    0.55    0.39
   3  -2   7   88.28    3.26
  -3  -2  -7   85.80    3.35
  -3   2  -7   84.28    2.74
  -3   2  -7   86.91    3.23
   3   2   7   90.19    3.15
  -4  -2  -7    5.65    0.84
  -4   2  -7    2.72    0.44
  -4   2  -7    2.81    0.61
  -5  -2  -7    8.39    1.15
  -5   2  -7    5.80    0.95
  -6  -2  -7    3.79    1.12
  -6   2  -7    1.62    0.85
  -7  -2  -7    3.31    1.37
  -7   2  -7    4.46    1.27
   8  -3  -7    8.24    1.88
  -8   3   7    8.96    2.04
  -7  -3   7   11.98    1.59
   7  -3  -7    9.41    1.68
  -7   3   7   11.13    1.82
   7   3  -7   12.22    1.51
   6  -3  -7   29.68    2.05
  -6  -3   7   28.14    1.98
  -6   3   7   29.92    2.07
   5  -3  -7    0.53    0.83
  -5  -3   7    0.96    0.69
  -5   3   7    0.56    0.80
  -4  -3   7    1.11    0.53
   4  -3  -7    0.52    0.59
  -4   3   7    0.40    0.60
  -3  -3   7   42.80    1.73
   3  -3  -7   42.81    1.93
   3  -3  -7   41.12    1.89
  -3   3   7   43.15    1.92
  -3   3   7   40.88    1.39
   2  -3  -7   24.88    1.28
   2  -3  -7   23.23    1.24
  -2   3   7   23.56    0.89
  -2   3   7   24.18    1.38
   1  -3  -7   70.28    2.77
  -1  -3   7   72.50    2.00
  -1   3   7   67.29    2.65
   1   3  -7   66.33    2.58
  -1   3   7   65.16    2.74
   1   3  -7   71.96    2.46
   0  -3  -7  145.02    5.63
   0  -3   7  145.96    5.12
   0  -3   7  156.42    5.57
   0  -3  -7  151.94    5.31
   0   3  -7  142.05    5.33
   0   3   7  152.51    5.54
   0   3   7  143.36    5.24
   0   3  -7  146.20    5.12
   1  -3   7   44.86    2.04
  -1   3  -7   43.44    2.18
   2  -3   7   19.14    1.07
   2  -3   7   19.77    1.43
  -2   3  -7   21.75    1.70
  -2   3  -7   23.47    0.88
   2   3   7   19.77    1.01
   2   3   7   20.99    1.10
  -3  -3  -7   43.34    2.03
   3  -3   7   43.75    1.90
  -3   3  -7   39.90    1.65
  -3   3  -7   44.20    1.84
   3   3   7   44.07    1.74
  -4  -3  -7   10.00    1.10
  -4   3  -7    8.67    0.95
  -4   3  -7    8.25    0.80
  -5  -3  -7   17.46    1.57
  -5   3  -7   15.54    1.40
  -6  -3  -7    2.50    1.09
  -6   3  -7    2.12    0.95
  -7  -3  -7   40.07    3.11
  -7   3  -7   39.51    2.62
   7  -4  -7   23.44    2.48
  -7   4   7   23.77    2.58
   6  -4  -7    5.93    1.37
  -6   4   7    4.21    1.32
   5  -4  -7   12.95    1.35
  -5   4   7   12.22    1.33
   4  -4  -7  151.45    5.55
  -4   4   7  154.76    4.41
  -4   4   7  149.44    5.57
   3  -4  -7   16.38    1.21
   3  -4  -7   18.11    1.28
  -3   4   7   16.79    0.82
  -3   4   7   18.25    1.29
   2  -4  -7  180.26    6.56
   2  -4  -7  178.02    6.11
   2  -4  -7  172.07    6.34
  -2   4   7  177.92    5.02
   2   4  -7  167.08    6.04
  -2   4   7  179.88    6.34
   2   4  -7  179.60    5.98
   1  -4  -7  164.55    6.13
  -1  -4   7  166.26    4.57
   1   4  -7  151.91    5.73
   1   4  -7  166.80    5.62
  -1   4   7  164.89    5.89
   0  -4  -7   64.03    3.04
   0  -4  -7   64.76    2.04
   0  -4   7   64.66    1.99
   0   4   7   60.86    2.56
   0   4  -7   64.33    2.41
   0   4  -7   65.72    2.69
   1  -4   7   45.03    1.87
   1  -4   7   44.85    1.66
  -1  -4  -7   45.48    1.61
   1   4   7   47.19    2.09
  -1   4  -7   44.48    2.31
   1   4   7   44.52    1.92
  -2  -4  -7    2.30    0.69
   2  -4   7    2.36    0.54
   2   4   7    1.34    0.54
  -2   4  -7    2.37    0.49
   2   4   7    2.48    0.50
  -3  -4  -7  122.81    4.74
   3  -4   7  127.07    4.69
  -3   4  -7  130.56    4.49
   3   4   7  123.99    4.52
  -3   4  -7  124.34    3.93
  -4  -4  -7   17.77    1.40
  -4   4  -7   17.77    1.21
  -4   4  -7   15.19    1.15
  -5  -4  -7   27.27    1.96
  -5   4  -7   30.81    1.32
  -5   4  -7   27.98    1.76
  -6  -4  -7   10.36    1.58
  -6   4  -7    8.83    1.30
  -7  -4  -7   -0.25    1.31
  -7   4  -7    0.87    1.15
   7  -5  -7    2.29    1.57
  -7   5   7   -0.88    1.57
   6  -5  -7    3.08    1.27
  -6   5   7    3.78    1.37
   5  -5  -7   23.30    1.84
  -5   5   7   21.86    1.06
  -5   5   7   22.99    1.89
   4  -5  -7   22.33    1.59
  -4   5   7   22.56    1.09
  -4   5   7   22.73    1.68
   3  -5  -7   18.06    1.32
   3  -5  -7   19.51    1.43
  -3   5   7   18.70    1.50
  -3   5   7   19.29    0.94
   2  -5  -7   63.11    2.80
   2  -5  -7   67.10    2.70
   2  -5  -7   67.08    2.32
   2   5  -7   67.45    2.55
  -2   5   7   64.89    2.15
   1  -5  -7    5.63    1.31
  -1  -5   7    6.63    0.54
   1  -5  -7    5.18    0.59
   1  -5  -7    6.26    1.13
  -1   5   7    6.19    0.87
   1   5  -7    6.17    0.75
   1   5  -7    5.42    0.54
   0  -5   7   11.78    0.85
   0  -5   7   11.27    0.71
   0  -5  -7   10.89    0.78
   0   5   7   11.32    1.03
   0   5   7   11.61    0.99
   0   5  -7   10.51    1.12
   0   5  -7   12.03    0.77
  -1  -5  -7    3.27    0.91
   1  -5   7    4.06    0.59
   1  -5   7    3.02    0.50
  -1  -5  -7    4.52    0.61
   1   5   7    4.85    0.73
   1   5   7    4.62    0.87
  -1   5  -7    4.24    1.00
   2  -5   7   69.98    2.48
  -2  -5  -7   77.34    3.19
   2  -5   7   74.76    3.00
  -2   5  -7   78.24    2.72
  -2   5  -7   73.80    2.54
   2   5   7   74.61    2.97
   3  -5   7   21.76    1.39
  -3  -5  -7   22.73    1.45
  -3   5  -7   20.18    1.17
  -3   5  -7   20.54    1.24
  -4  -5  -7    3.17    0.81
  -4   5  -7    3.76    0.75
  -4   5  -7    2.68    0.72
  -5  -5  -7   51.06    2.86
  -5   5  -7   56.24    2.31
  -5   5  -7   58.92    2.66
  -6  -5  -7    7.33    1.50
  -6   5  -7    5.36    1.20
  -7  -5  -7    0.05    1.35
  -7   5  -7    0.93    1.15
   7  -6  -7   14.90    2.08
  -7   6   7   10.81    2.20
   6  -6  -7   60.25    3.24
  -6   6   7   56.46    3.50
   5  -6  -7    0.75    1.05
  -5   6   7    1.67    1.18
  -5   6   7    0.80    0.52
   4  -6  -7   86.12    3.54
  -4   6   7   84.32    2.79
  -4   6   7   82.62    3.73
   3  -6  -7   50.56    2.53
   3  -6  -7   49.20    2.32
  -3   6   7   49.64    1.80
   2  -6  -7  123.19    4.62
   2  -6  -7  128.08    3.93
   2   6  -7  125.05    4.61
  -2   6   7  121.08    3.79
  -1  -6   7   42.15    1.54
   1  -6  -7   42.22    2.69
   1  -6  -7   44.20    1.70
   1   6  -7   44.01    2.13
  -1   6   7   47.83    1.69
  -1   6   7   45.19    2.22
   0  -6  -7  198.46    5.77
   0  -6   7  205.83    5.71
   0  -6  -7  185.40    7.20
   0   6  -7  194.86    7.32
   0   6   7  204.83    7.26
  -1  -6  -7  457.66   12.70
   1  -6   7  463.42   12.66
  -1  -6  -7  430.28   15.33
   1   6   7  457.89   15.66
  -1   6  -7  454.36   15.96
   2  -6   7   26.48    1.33
  -2  -6  -7   28.93    1.68
   2   6   7   27.96    1.55
  -2   6  -7   25.55    1.35
  -3  -6  -7   47.61    2.27
  -3   6  -7   44.82    1.97
  -4  -6  -7   11.41    1.31
  -4   6  -7   10.55    1.15
  -4   6  -7   10.15    1.17
  -5   6  -7   50.86    2.40
  -5   6  -7   51.30    2.54
  -6   6  -7    1.23    1.05
   7  -6   7   11.18    1.65
  -7   6  -7    2.73    1.31
   7  -7  -7   12.96    2.14
   6  -7  -7   -0.03    1.34
   5  -7  -7    9.20    1.44
  -5   7   7    8.74    0.93
   4  -7  -7   22.27    1.85
  -4   7   7   22.38    1.26
   3  -7  -7   13.86    1.46
  -3   7   7   15.36    0.99
   2  -7  -7   29.79    1.50
   2  -7  -7   28.20    1.87
  -2   7   7   28.38    1.35
   1  -7  -7    6.62    0.76
  -1  -7   7    7.48    0.69
  -1   7   7    7.87    1.12
   1   7  -7    5.64    0.95
   0  -7  -7   67.65    2.34
   0  -7   7   65.89    2.27
   0   7   7   67.88    3.05
   0   7  -7   67.15    3.15
  -1  -7  -7   46.07    1.87
   1  -7   7   46.53    1.82
   1   7   7   45.05    2.32
  -1   7  -7   46.97    2.63
   2  -7   7   31.60    1.55
  -2   7  -7   32.02    1.61
  -3   7  -7   34.26    1.76
  -4   7  -7   -0.47    0.76
  -5   7  -7   50.81    2.56
  -6   7  -7    1.94    0.54
   6  -8  -7   -0.54    1.48
  -6   8   7    0.17    0.52
   5  -8  -7    8.10    1.56
  -5   8   7    6.84    0.94
   4  -8  -7  150.62    5.81
  -4   8   7  150.55    4.69
  -3   8   7   25.62    1.34
   2  -8  -7   80.74    2.94
  -2   8   7   80.90    2.82
  -1  -8   7   57.48    2.03
   1  -8  -7   56.13    2.17
   0  -8  -7    4.36    0.68
   0  -8   7    2.65    0.59
   1  -8   7    2.62    0.67
  -1  -8  -7    3.75    0.71
   2  -8   7   13.47    1.19
  -3   8  -7  163.02    5.24
  -4   8  -7   27.90    1.92
  -5   8  -7   19.13    1.76
  -6   8  -7    7.08    0.91
  -6   9   7    2.30    0.72
  -5   9   7    4.17    0.89
  -4   9   7    1.67    0.72
  -3   9   7    8.59    0.94
   1  -9  -7    0.48    0.66
  -1  -9   7    0.34    0.49
   0  -9   7   82.14    2.79
   0  -9  -7   79.24    2.84
   1  -9   7    1.24    0.66
  -1  -9  -7    2.17    0.65
   2  -9   7    1.38    0.75
  -3   9  -7   45.30    2.20
  -4   9  -7    8.88    1.32
  -5   9  -7    2.72    1.00
  -6   9  -7    2.47    0.83
  -5  10   7    4.07    0.96
  -4  10   7    0.64    0.76
  -3  10   7    1.69    0.75
   2 -10  -7   74.69    2.96
  -1 -10   7   14.97    0.88
   1 -10  -7   15.36    1.37
   0 -10   7    4.00    0.73
   0 -10  -7    3.99    0.78
  -1 -10  -7   40.08    1.73
   1 -10   7   41.53    1.98
   2 -10   7   23.77    1.73
  -3  10  -7   16.48    1.59
  -4  10  -7    3.04    1.11
  -5  10  -7    6.26    1.20
  -5  11   7   13.12    1.32
  -4  11   7   15.47    1.53
   3 -11  -7    1.07    1.10
   2 -11  -7   48.00    2.38
   1 -11  -7    2.33    0.88
   0 -11   7    2.67    0.71
   0 -11  -7    1.10    0.68
   1 -11   7    2.16    0.86
  -1 -11  -7    1.41    0.48
   2 -11   7   43.36    2.31
   3 -11   7   -0.85    0.95
  -4  11  -7    1.71    1.09
  -5  11  -7   49.31    2.69
  -4  12   7   12.95    1.30
   3 -12  -7   40.92    2.49
   2 -12  -7   -1.22    0.96
   1 -12  -7    5.14    1.02
   0 -12   7    1.11    0.66
   0 -12  -7    2.29    0.77
   1 -12   7   10.17    1.20
   2 -12   7    0.79    1.00
   3 -12   7   13.07    1.58
  -4  12  -7   38.91    2.41
   3 -13  -7    2.99    1.26
   2 -13  -7    1.64    1.12
   1 -13  -7    7.31    1.16
   0 -13   7   41.52    1.80
   0 -13  -7   38.47    1.89
   1 -13   7   14.08    1.34
   2 -13   7    0.87    1.04
   3 -13   7   15.10    1.68
   2 -14  -7    0.84    1.15
   1 -14  -7   21.77    1.78
   1 -14   7    0.73    0.92
   8   0  -8    0.34    1.40
  -8   0   8    0.44    1.51
   7   0  -8    3.85    1.27
  -7   0   8    2.89    1.28
   6   0  -8   79.85    3.54
  -6   0   8   81.72    3.63
  -5   0   8   16.95    1.38
   5   0  -8   16.06    1.36
   4   0  -8  147.65    5.42
  -4   0   8  149.04    5.44
   4   0  -8  161.57    5.37
   3   0  -8   10.07    0.60
   3   0  -8    8.50    0.85
  -3   0   8   10.22    0.84
   3   0  -8   10.26    0.62
   2   0  -8  295.15   10.02
  -2   0   8  301.32    8.09
   2   0  -8  295.34   10.06
  -1   0   8   52.25    1.96
  -1   0   8   48.58    1.75
   1   0  -8   47.74    2.00
   1   0  -8   49.00    1.80
   0   0  -8    2.46    0.68
   0   0  -8    3.63    0.35
   0   0   8    2.76    0.33
   0   0   8    2.63    0.72
   1   0   8  931.72   32.38
   1   0   8  957.04   32.71
  -1   0  -8  931.88   32.40
  -1   0  -8 1000.00   32.36
   2   0   8   99.19    3.66
   2   0   8   92.08    3.43
  -2   0  -8  104.90    3.50
  -2   0  -8   91.91    2.80
  -3   0  -8   48.42    2.00
  -3   0  -8   45.13    1.47
   3   0   8   46.26    1.83
  -4   0  -8    0.54    0.50
  -5   0  -8  124.69    4.85
  -6   0  -8   26.90    2.02
  -7   0  -8    6.15    1.44
   8  -1  -8    3.01    1.56
  -8  -1   8    2.26    1.55
  -8   1   8    2.60    1.67
   8   1  -8    3.24    1.49
   7  -1  -8   -0.26    1.16
  -7  -1   8   -0.71    1.12
   7   1  -8    0.54    1.11
  -7   1   8    0.46    1.25
  -6  -1   8   37.82    2.24
   6  -1  -8   33.37    2.22
  -6   1   8   37.62    2.32
   6   1  -8   37.09    2.16
  -5  -1   8    7.71    0.96
   5  -1  -8    6.92    0.95
   5   1  -8    6.97    0.91
  -5   1   8    7.48    0.99
   4  -1  -8   18.75    1.04
   4  -1  -8   15.83    1.22
  -4  -1   8   16.48    1.13
   4   1  -8   18.86    0.81
  -4   1   8   16.15    1.20
   3  -1  -8  113.72    4.07
  -3  -1   8  115.18    4.04
  -3   1   8  111.55    3.13
   3   1  -8  109.96    4.02
   3   1  -8  112.03    3.85
   3   1  -8  117.35    3.87
   2  -1  -8    8.52    0.63
   2  -1  -8    8.50    0.60
   2   1  -8    8.60    0.40
   2   1  -8    8.88    0.47
  -2   1   8    8.27    0.41
   1  -1  -8    4.97    0.68
   1  -1  -8    3.63    0.40
  -1  -1   8    4.05    0.24
  -1  -1   8    4.34    0.33
   1   1  -8    4.23    0.30
  -1   1   8    4.30    0.57
  -1   1   8    3.98    0.35
   1   1  -8    5.36    0.57
   0  -1  -8   24.18    1.05
   0  -1  -8   22.93    1.46
   0  -1   8   24.74    1.46
   0  -1   8   23.40    0.96
   0   1   8   22.80    0.99
   0   1  -8   24.81    0.97
   0   1   8   24.89    1.55
   0   1  -8   23.41    1.33
  -1  -1  -8   22.02    1.33
  -1   1  -8   17.79    1.36
  -2  -1  -8  105.82    3.99
   2  -1   8  115.45    4.21
   2  -1   8  108.53    3.92
  -2  -1  -8  112.37    3.17
  -2   1  -8  115.49    3.90
  -2   1  -8  111.29    4.24
   2   1   8  109.86    4.06
  -2   1  -8  109.93    3.21
   2   1   8  108.05    3.89
  -3  -1  -8    6.71    0.74
   3  -1   8    5.41    0.60
  -3   1  -8    5.22    0.52
   3   1   8    5.85    0.52
  -4  -1  -8   78.67    3.15
  -4   1  -8   75.06    3.07
  -5  -1  -8    9.33    1.17
  -5   1  -8    7.25    0.96
  -6  -1  -8   24.36    2.04
  -6   1  -8   22.64    1.90
  -7  -1  -8    1.00    1.18
  -7   1  -8    2.05    1.17
   8  -2  -8    1.05    1.56
  -8  -2   8    1.03    1.47
   8   2  -8    1.97    1.39
  -8   2   8    1.46    1.68
  -7  -2   8   31.41    2.47
   7  -2  -8   32.61    2.54
  -7   2   8   33.22    2.67
   7   2  -8   33.48    2.46
   6  -2  -8   41.84    2.48
  -6  -2   8   44.73    2.42
  -6   2   8   42.55    2.53
   6   2  -8   44.95    2.34
   5  -2  -8   39.81    2.14
  -5  -2   8   40.00    2.01
  -5   2   8   40.77    2.17
   4  -2  -8  235.13    8.11
  -4  -2   8  233.91    8.01
  -4   2   8  231.12    8.11
   3  -2  -8   16.67    1.01
   3  -2  -8   13.80    1.07
  -3  -2   8   16.42    0.94
  -3   2   8   14.24    0.62
  -3   2   8   16.14    1.11
   2  -2  -8   11.61    0.80
   2  -2  -8    9.85    0.79
   2  -2  -8   13.32    0.87
   2   2  -8    9.91    0.49
  -2   2   8   11.39    0.92
   2   2  -8   10.48    0.47
  -2   2   8   13.14    0.62
  -2   2   8   13.28    0.54
   1  -2  -8   90.61    3.39
   1  -2  -8   89.44    3.56
   1   2  -8   95.17    3.19
  -1   2   8   95.05    3.52
   1   2  -8   88.81    3.34
  -1   2   8   90.26    3.29
   0  -2   8  420.60   14.27
   0  -2  -8  386.40   14.27
   0  -2   8  406.44   13.97
   0  -2  -8  423.95   13.95
   0   2   8  384.31   13.88
   0   2  -8  421.67   13.83
   0   2   8  432.21   14.28
   0   2  -8  410.50   14.08
  -1  -2  -8  151.26    5.46
   1  -2   8  149.82    5.19
  -1  -2  -8  154.61    5.21
   1  -2   8  159.46    5.47
  -1   2  -8  139.96    5.61
   1   2   8  144.11    5.32
   1   2   8  142.31    5.19
  -1   2  -8  150.43    5.16
   2  -2   8  131.02    4.75
   2  -2   8  139.69    5.08
  -2  -2  -8  137.73    3.78
  -2  -2  -8  130.98    4.87
  -2   2  -8  135.20    3.87
  -2   2  -8  136.51    4.62
   2   2   8  126.08    4.69
   2   2   8  136.86    4.83
   3  -2   8  320.11   10.87
  -3  -2  -8  309.91   10.79
  -3   2  -8  323.39   10.64
   3   2   8  333.14   10.79
  -3   2  -8  294.47    8.93
  -4  -2  -8   23.89    1.47
  -4   2  -8   21.48    1.34
  -4   2  -8   21.66    1.04
  -5  -2  -8    4.42    1.00
  -5   2  -8    3.99    0.89
  -6  -2  -8   34.20    2.46
  -6   2  -8   36.00    2.23
  -7  -2  -8   15.49    2.05
  -7   2  -8   17.26    1.97
   8  -3  -8   32.32    2.96
  -8   3   8   34.17    3.25
   7  -3  -8   -0.57    1.24
  -7  -3   8   -0.63    1.08
  -7   3   8    0.43    1.34
   7   3  -8    1.44    1.10
  -6  -3   8    2.47    0.96
   6  -3  -8    4.01    1.21
   6   3  -8    3.30    0.92
  -6   3   8    2.61    1.17
   5  -3  -8   23.98    1.74
  -5  -3   8   27.35    1.58
  -5   3   8   24.41    1.76
   4  -3  -8   27.08    1.65
  -4  -3   8   29.60    1.48
  -4   3   8   30.87    1.70
  -4   3   8   30.38    1.05
   3  -3  -8   29.98    1.59
  -3  -3   8   31.27    1.40
   3  -3  -8   31.72    1.61
  -3   3   8   30.63    1.11
  -3   3   8   32.49    1.67
   2  -3  -8   48.76    1.98
   2  -3  -8   43.51    1.86
   2   3  -8   43.83    1.68
   2   3  -8   44.16    1.58
  -2   3   8   43.98    1.44
   1  -3  -8  479.12   16.19
  -1  -3   8  490.03   12.98
   1  -3  -8  454.84   16.31
   1   3  -8  506.63   15.92
   1   3  -8  443.03   16.02
  -1   3   8  459.13   16.06
  -1   3   8  480.01   16.25
   0  -3  -8   16.32    0.97
   0  -3   8   14.65    0.74
   0  -3  -8   13.02    1.35
   0   3   8   13.84    0.87
   0   3   8   15.47    1.32
   0   3  -8   14.77    0.74
   0   3  -8   14.00    1.04
  -1  -3  -8  146.80    5.35
  -1  -3  -8  144.39    4.31
   1  -3   8  159.92    5.55
   1  -3   8  149.38    5.24
   1   3   8  145.82    5.27
  -1   3  -8  142.03    5.65
  -1   3  -8  151.64    5.21
   1   3   8  151.46    5.40
   2  -3   8    9.16    0.78
   2  -3   8   10.18    1.11
  -2  -3  -8   10.16    0.44
  -2  -3  -8   10.23    1.10
  -2   3  -8   10.46    0.65
   2   3   8    9.90    0.87
  -2   3  -8    9.31    0.68
   2   3   8   10.39    0.75
  -2   3  -8   11.14    1.41
  -3  -3  -8    0.01    0.54
   3  -3   8    0.20    0.43
   3   3   8    0.10    0.36
  -3   3  -8    0.04    0.42
  -3   3  -8   -0.27    0.44
  -4  -3  -8    9.95    1.15
  -4   3  -8    9.31    1.00
  -4   3  -8    9.33    0.89
  -5  -3  -8   33.68    2.17
  -5   3  -8   33.84    1.93
  -6  -3  -8   20.98    2.07
  -6   3  -8   19.23    1.74
  -7  -3  -8   15.47    2.18
  -7   3  -8   15.16    1.73
   7  -4  -8    9.44    1.77
  -7   4   8   11.17    1.98
   6  -4  -8   15.03    1.73
  -6   4   8   12.97    1.66
   5  -4  -8    3.87    0.95
  -5   4   8    3.59    0.97
   4  -4  -8   14.73    1.31
  -4   4   8   13.42    1.34
  -4   4   8   13.03    0.78
   3  -4  -8   19.61    1.36
   3  -4  -8   19.84    1.32
  -3   4   8   19.58    0.89
  -3   4   8   19.76    1.47
   2  -4  -8  200.37    6.81
   2  -4  -8  199.62    7.28
   2  -4  -8  191.12    7.03
   2   4  -8  208.97    6.69
   2   4  -8  181.30    6.76
  -2   4   8  198.32    5.57
  -1  -4   8   55.78    1.70
   1  -4  -8   53.79    2.71
   1  -4  -8   54.22    2.65
   1   4  -8   53.81    2.25
   1   4  -8   58.14    2.11
  -1   4   8   58.63    2.36
   0  -4   8   77.05    2.28
   0  -4  -8   74.71    3.44
   0  -4  -8   72.80    2.33
   0   4   8   74.26    2.93
   0   4  -8   73.42    3.05
   0   4  -8   74.41    2.76
   1  -4   8  124.48    3.59
   1  -4   8  123.43    4.37
  -1  -4  -8  118.48    4.70
  -1  -4  -8  120.74    3.64
  -1   4  -8  123.03    4.84
   1   4   8  117.46    4.41
   1   4   8  117.22    4.56
   2  -4   8   20.00    1.16
  -2  -4  -8   25.45    1.55
   2   4   8   17.37    1.08
  -2   4  -8   18.98    0.98
  -3  -4  -8   10.78    1.13
   3  -4   8   11.17    0.97
   3   4   8   11.22    0.86
  -3   4  -8   10.41    0.86
  -3   4  -8   10.21    0.96
  -4  -4  -8    1.54    0.76
  -4   4  -8    0.28    0.59
  -4   4  -8    0.46    0.56
  -5  -4  -8   42.12    2.54
  -5   4  -8   47.45    1.81
  -5   4  -8   42.71    2.24
  -6  -4  -8    4.18    1.27
  -6   4  -8    2.72    1.06
  -7  -4  -8   14.18    2.16
  -7   4  -8   14.17    1.71
   7  -5  -8   -0.49    1.47
  -7   5   8   -0.53    1.65
   6  -5  -8   53.93    3.01
  -6   5   8   46.63    3.08
   5  -5  -8    0.32    0.94
  -5   5   8   -0.15    0.37
  -5   5   8   -0.81    0.99
   4  -5  -8    1.19    0.84
  -4   5   8    1.66    0.46
  -4   5   8    2.13    0.99
   3  -5  -8  112.08    4.33
   3  -5  -8  103.81    4.07
   3   5  -8  113.76    3.84
  -3   5   8  102.86    4.25
  -3   5   8  107.10    3.28
   2  -5  -8   15.64    1.06
   2  -5  -8   19.79    1.39
   2   5  -8   19.89    1.11
  -2   5   8   16.68    0.86
   1  -5  -8    0.03    0.83
   1  -5  -8    0.68    0.44
  -1  -5   8    0.35    0.28
   1  -5  -8    0.20    1.24
   1   5  -8   -0.02    0.51
  -1   5   8    0.65    0.33
  -1   5   8    0.86    0.59
   0  -5  -8   21.82    2.02
   0  -5   8   23.28    1.00
   0  -5  -8   22.70    1.06
   0   5   8   20.71    1.35
   0   5  -8   22.23    1.50
   0   5   8   23.94    1.37
   0   5  -8   22.73    1.15
  -1  -5  -8   66.76    3.05
   1  -5   8   69.91    2.73
   1  -5   8   69.37    2.28
  -1  -5  -8   70.92    2.36
  -1   5  -8   67.77    3.21
   1   5   8   68.10    2.82
   2  -5   8    1.60    0.51
  -2  -5  -8    1.87    0.76
   2  -5   8    1.40    0.56
  -2   5  -8    1.44    0.53
   2   5   8    2.12    0.57
   3  -5   8   69.36    2.96
  -3  -5  -8   71.25    3.13
  -3   5  -8   72.91    2.73
  -3   5  -8   68.80    2.55
  -4  -5  -8   17.52    1.55
  -4   5  -8   18.17    1.25
  -4   5  -8   13.18    1.26
  -5  -5  -8   56.93    3.14
  -5   5  -8   64.72    2.55
  -5   5  -8   60.61    2.79
  -6  -5  -8    0.81    1.16
  -6   5  -8   -0.61    0.97
  -7  -5  -8    4.89    1.72
  -7   5  -8    4.62    1.33
   7  -6  -8   -1.75    1.53
  -7   6   8   -2.75    1.63
   6  -6  -8    3.15    1.37
  -6   6   8    1.64    1.46
   5  -6  -8   12.91    1.53
  -5   6   8   11.30    0.97
  -5   6   8   13.86    1.79
   4  -6  -8   19.17    1.66
  -4   6   8   19.29    1.10
  -4   6   8   18.11    1.87
   3  -6  -8    1.20    0.83
   3  -6  -8    2.16    0.83
  -3   6   8    2.41    0.48
   2  -6  -8    7.32    0.77
   2  -6  -8    7.77    1.09
  -2   6   8    7.59    0.70
   2   6  -8    8.32    0.91
   1   6  -8   29.98    1.83
  -1   6   8   43.28    2.03
   0  -6  -8    5.27    1.25
   0  -6   8    4.30    0.52
   0  -6  -8    4.23    0.59
   0   6   8    5.49    0.88
   0   6  -8    4.40    0.92
  -1  -6  -8   23.63    1.27
   1   6   8   28.13    1.56
  -1   6  -8   20.52    1.79
  -2  -6  -8   13.35    1.25
   2  -6   8   10.04    0.94
  -2   6  -8   10.84    1.02
  -3  -6  -8   33.34    1.96
  -3   6  -8   33.97    1.68
  -4  -6  -8    0.49    0.77
  -4   6  -8   -0.13    0.66
  -4   6  -8   -0.66    0.65
  -5  -6  -8    4.46    1.13
  -5   6  -8    3.98    1.03
  -5   6  -8    5.36    1.00
  -6   6  -8    2.02    1.06
   7  -6   8    6.63    1.42
  -7   6  -8   -0.11    1.15
   7  -7  -8   -2.37    1.63
   6  -7  -8    4.91    1.59
   5  -7  -8   -0.32    1.18
  -5   7   8   -0.25    0.56
   4  -7  -8   11.55    1.44
  -4   7   8   10.51    1.00
   3  -7  -8   47.42    2.41
  -3   7   8   48.17    1.82
   2  -7  -8   32.54    2.11
   2  -7  -8   30.63    1.56
  -2   7   8   31.52    1.40
   1  -7  -8   70.71    2.46
  -1  -7   8   69.16    2.31
   1  -7  -8   72.17    3.63
  -1   7   8   69.97    3.16
   0  -7   8   43.14    1.65
   0  -7  -8   43.39    1.72
   0   7  -8   42.78    2.36
   0   7   8   43.03    2.24
  -1  -7  -8    0.44    0.52
   1  -7   8    0.23    0.49
  -1   7  -8    0.45    0.88
   2  -7   8    3.17    0.72
  -2   7  -8    4.80    0.76
  -3   7  -8   13.78    1.27
  -4   7  -8    0.03    0.80
  -5   7  -8   47.81    2.52
  -6   7  -8    6.61    0.71
   6  -8  -8   -0.15    1.49
  -6   8   8    1.93    0.58
   5  -8  -8    0.31    1.32
  -5   8   8   -1.29    0.61
   4  -8  -8   27.64    2.31
  -4   8   8   28.12    1.49
  -3   8   8    7.81    0.80
   2  -8  -8    2.64    0.78
  -2   8   8    2.49    0.62
   1  -8  -8   13.49    1.10
  -1  -8   8   13.73    0.93
   0  -8   8   41.67    1.72
   0  -8  -8   44.90    1.81
  -1  -8  -8   16.10    1.17
   1  -8   8   15.42    1.17
   2  -8   8    9.53    0.98
  -3   8  -8   21.72    1.58
  -4   8  -8    7.75    1.24
  -5   8  -8    3.98    1.08
  -6   8  -8    3.45    0.75
  -6   9   8   11.48    1.12
  -5   9   8   -1.12    0.71
  -4   9   8    0.87    0.71
  -3   9   8    5.12    0.78
   2  -9  -8   25.40    1.60
   1  -9  -8   33.63    1.71
  -1  -9   8   36.00    1.49
   0  -9   8   14.75    1.10
   0  -9  -8   15.75    1.19
   1  -9   8    6.28    0.90
  -1  -9  -8    7.50    0.86
   2  -9   8    3.47    0.87
  -3   9  -8   21.44    1.64
  -4   9  -8   20.09    1.76
  -5   9  -8   14.42    1.59
  -6   9  -8    1.15    0.79
  -5  10   8   -0.56    0.79
  -4  10   8   30.92    1.77
  -3  10   8   12.04    1.12
   2 -10  -8   27.35    1.80
  -1 -10   8   14.31    0.86
   1 -10  -8   13.81    1.33
   0 -10   8   16.40    1.24
   0 -10  -8   15.96    1.26
   1 -10   8   52.48    2.24
  -1 -10  -8   49.48    2.01
   2 -10   8    0.07    0.81
  -3  10  -8   30.25    1.94
  -4  10  -8   12.87    1.47
  -5  10  -8    6.54    1.20
  -5  11   8   -0.14    0.85
  -4  11   8    3.65    0.93
   2 -11  -8    4.75    1.12
   1 -11  -8    7.63    1.09
   0 -11   8    7.26    0.91
   0 -11  -8    6.36    0.92
  -1 -11  -8    7.18    0.69
   1 -11   8    7.52    1.08
   2 -11   8    0.06    0.90
   3 -11   8    1.46    1.07
  -4  11  -8    9.24    1.41
  -4  12   8   21.68    1.72
   3 -12  -8    0.49    1.13
   2 -12  -8   45.60    2.44
   1 -12  -8   22.53    1.73
   0 -12  -8    0.31    0.72
   0 -12   8    0.88    0.66
   1 -12   8   54.74    2.44
   2 -12   8   10.37    1.38
   3 -12   8   18.46    1.82
  -4  12  -8    1.79    1.05
   3 -13  -8    1.87    1.21
   2 -13  -8    1.14    1.08
   1 -13  -8   14.46    1.39
   0 -13   8   12.43    1.13
   0 -13  -8   11.48    1.10
   1 -13   8    2.04    0.95
   2 -13   8    2.28    1.12
   3 -13   8    0.16    1.14
   1 -14  -8   12.78    1.31
   1 -14   8    7.57    1.13
  -8   0   9    3.42    1.71
   8   0  -9    2.84    1.52
  -7   0   9   -0.08    1.21
   7   0  -9    0.23    1.17
  -6   0   9    2.77    1.06
   6   0  -9    3.32    1.05
   5   0  -9   -0.70    0.67
  -5   0   9    0.20    0.72
   4   0  -9    0.26    0.36
   4   0  -9   -0.63    0.48
  -4   0   9   -0.10    0.48
   3   0  -9    0.37    0.32
   3   0  -9   -0.07    0.49
  -3   0   9    0.46    0.49
   2   0  -9    0.19    0.28
   2   0  -9    0.16    0.21
  -2   0   9    0.09    0.13
   0   0  -9   -0.13    0.20
   0   0   9    0.11    0.19
   0   0   9    0.17    0.65
   0   0  -9    0.18    0.61
   1   0   9   10.36    0.62
  -1   0  -9   13.43    0.67
   1   0   9   12.88    0.97
   2   0   9    0.52    0.52
  -2   0  -9    0.06    0.33
   2   0   9   -0.02    0.24
  -2   0  -9    0.18    0.41
  -2   0  -9   -0.01    0.26
  -3   0  -9    0.00    0.29
  -3   0  -9    0.17    0.44
   3   0   9    0.18    0.32
  -4   0  -9    0.21    0.49
  -5   0  -9    0.69    0.70
  -7   0  -9    0.66    1.16
   8  -1  -9   24.61    2.41
  -8  -1   9   24.39    2.52
  -8   1   9   28.75    3.10
   8   1  -9   27.55    2.72
  -7  -1   9    2.23    1.27
   7  -1  -9    2.38    1.30
  -7   1   9    1.64    1.37
   7   1  -9    3.99    1.27
   6  -1  -9   15.73    1.57
  -6  -1   9   15.48    1.66
   6   1  -9   17.53    1.62
  -6   1   9   15.46    1.63
   5  -1  -9   75.96    3.26
  -5  -1   9   78.41    3.24
  -5   1   9   82.22    3.34
   5   1  -9   74.40    3.17
  -4  -1   9    1.89    0.61
   4  -1  -9    2.07    0.68
   4   1  -9    1.15    0.58
  -4   1   9    2.24    0.67
   4   1  -9    2.61    0.38
   3  -1  -9  151.28    5.33
  -3  -1   9  151.98    5.26
   3  -1  -9  147.86    5.27
  -3   1   9  150.82    5.32
  -3   1   9  147.91    4.15
   3   1  -9  149.28    5.23
   3   1  -9  150.54    5.12
   3   1  -9  153.89    5.16
   2  -1  -9   13.69    0.86
   2  -1  -9   19.14    0.87
   2  -1  -9   14.71    0.95
  -2   1   9   15.14    1.10
   2   1  -9   15.71    0.66
  -1  -1   9  318.66   10.85
  -1  -1   9  352.54   11.02
   1  -1  -9  302.77   11.18
   1  -1  -9  319.80   11.00
  -1   1   9  340.43   11.24
   1   1  -9  320.29   10.90
   1   1  -9  313.00   11.09
  -1   1   9  323.56   10.94
   0  -1   9    1.83    0.73
   0  -1  -9   -0.02    0.25
   0  -1  -9    0.97    0.68
   0  -1   9    0.19    0.19
   0   1   9    0.06    0.22
   0   1   9    0.57    0.69
   0   1  -9    0.19    0.19
   0   1  -9    0.16    0.55
  -1   1  -9   18.95    1.44
   2  -1   9   88.53    3.51
   2  -1   9   89.06    3.23
  -2  -1  -9   83.32    3.33
  -2  -1  -9   89.89    2.65
   2   1   9   90.61    3.41
  -2   1  -9   86.22    3.63
   2   1   9   88.69    3.20
  -2   1  -9   89.32    2.66
  -2   1  -9   95.32    3.23
  -3  -1  -9   52.87    2.25
   3  -1   9   52.67    2.09
   3   1   9   50.96    2.03
  -3   1  -9   55.80    2.18
  -3   1  -9   49.69    1.82
  -4  -1  -9   28.21    1.62
  -4   1  -9   24.67    1.48
  -4   1  -9   25.22    0.91
  -5  -1  -9   25.73    1.80
  -5   1  -9   23.92    1.66
  -6  -1  -9    5.90    1.24
  -6   1  -9    4.38    1.03
  -7  -1  -9    0.43    1.21
  -7   1  -9    3.82    1.27
   8  -2  -9    4.42    1.69
  -8  -2   9    5.96    1.72
   8   2  -9    3.75    1.56
  -8   2   9    5.15    1.92
   7  -2  -9    0.33    1.24
  -7  -2   9   -0.71    1.15
   7   2  -9    0.86    1.14
  -7   2   9    0.03    1.31
  -6  -2   9    1.54    0.95
   6  -2  -9    2.43    1.11
  -6   2   9    2.02    1.14
   6   2  -9    3.41    0.98
   5  -2  -9   -0.23    0.75
  -5  -2   9    0.44    0.70
   5   2  -9    0.64    0.67
  -5   2   9   -0.71    0.73
   4  -2  -9   55.15    2.43
  -4  -2   9   55.83    2.32
   4   2  -9   54.99    2.29
  -4   2   9   55.93    2.46
   3  -2  -9    6.97    0.81
  -3  -2   9    7.98    0.80
   3  -2  -9    8.46    0.87
  -3   2   9    8.62    0.92
   3   2  -9    6.89    0.70
  -3   2   9    7.99    0.47
   2  -2  -9    8.93    0.77
   2  -2  -9    9.47    0.79
   2  -2  -9    8.51    0.81
  -2   2   9    9.72    0.51
  -2   2   9    8.82    0.55
   2   2  -9    9.03    0.45
  -2   2   9    9.37    0.95
  -1  -2   9   39.25    1.25
   1  -2  -9   41.40    1.73
   1  -2  -9   43.56    1.99
   1   2  -9   46.31    1.76
  -1   2   9   40.69    1.61
   1   2  -9   36.31    1.49
  -1   2   9   35.41    1.84
   0  -2  -9   14.63    1.33
   0  -2  -9   12.23    0.82
   0  -2   9   12.81    1.27
   0  -2   9   13.40    0.67
   0   2   9   14.12    1.34
   0   2   9   13.63    0.77
   0   2  -9   12.68    1.03
   0   2  -9   13.83    0.68
  -1  -2  -9   83.34    2.40
   1  -2   9   72.54    2.82
   1  -2   9   84.46    3.17
  -1  -2  -9   75.00    3.21
  -1   2  -9   74.50    2.80
   1   2   9   73.46    2.84
  -1   2  -9   69.73    3.30
   1   2   9   88.07    3.07
  -2  -2  -9   86.86    2.52
   2  -2   9   82.96    3.13
   2  -2   9   84.44    3.44
  -2  -2  -9   81.29    3.34
   2   2   9   86.24    3.25
  -2   2  -9   86.49    3.05
   2   2   9   82.40    3.09
  -2   2  -9   86.22    2.57
  -3  -2  -9   62.77    2.74
   3  -2   9   66.11    2.54
  -3   2  -9   56.96    2.19
  -3   2  -9   65.78    2.52
   3   2   9   66.76    2.45
  -4  -2  -9    6.02    0.90
  -4   2  -9    5.57    0.62
  -4   2  -9    5.84    0.78
  -5  -2  -9    1.85    0.87
  -5   2  -9    1.34    0.77
  -6  -2  -9   22.14    2.12
  -6   2  -9   26.97    1.97
  -7  -2  -9    0.33    1.25
  -7   2  -9    2.57    1.19
   8  -3  -9    9.17    1.96
  -8   3   9   10.24    2.47
   7  -3  -9    4.40    1.51
   7   3  -9    8.23    1.39
  -7   3   9    5.38    1.62
   6  -3  -9    5.89    1.27
  -6  -3   9    4.83    1.11
  -6   3   9    5.55    1.32
   6   3  -9    5.97    1.11
  -5  -3   9   12.73    1.22
   5  -3  -9   12.52    1.33
  -5   3   9   11.87    1.35
   5   3  -9   13.13    1.19
  -4  -3   9    0.00    0.52
   4  -3  -9   -0.02    0.69
   4   3  -9    0.14    0.50
  -4   3   9   -0.36    0.70
  -4   3   9    0.56    0.27
   3  -3  -9  112.14    4.21
  -3  -3   9  113.42    3.93
   3  -3  -9  108.90    4.05
  -3   3   9  105.87    3.20
  -3   3   9  108.59    4.16
   3   3  -9  111.62    3.89
   2  -3  -9  132.28    4.65
   2  -3  -9  130.89    4.92
   2   3  -9  126.25    4.60
   2   3  -9  137.25    4.49
  -2   3   9  128.68    3.76
   1  -3  -9   62.42    2.53
   1  -3  -9   60.92    2.74
  -1  -3   9   59.11    1.80
   1   3  -9   59.04    2.22
   1   3  -9   61.94    2.42
  -1   3   9   63.35    2.40
   0  -3   9   89.69    2.64
   0  -3  -9   89.25    3.82
   0  -3   9   88.97    3.19
   0   3   9   85.16    3.30
   0   3  -9   87.19    3.47
   0   3   9   93.26    3.74
   0   3  -9   89.75    3.20
   1  -3   9    3.05    0.46
  -1  -3  -9    2.43    0.68
  -1  -3  -9    3.29    1.13
  -1  -3  -9    3.44    0.46
  -1   3  -9    3.57    0.93
   1   3   9    3.49    0.50
   1   3   9    3.86    0.74
   2  -3   9    2.94    0.82
   2  -3   9    2.50    0.49
   2   3   9    3.51    0.64
  -2   3  -9    2.89    1.15
   2   3   9    2.69    0.46
  -2   3  -9    3.05    0.46
  -3  -3  -9    8.74    1.05
   3  -3   9   10.00    0.88
  -3   3  -9    8.23    0.80
  -3   3  -9    9.53    0.83
   3   3   9    9.07    0.76
  -4  -3  -9   40.40    2.21
  -4   3  -9   36.91    1.68
  -4   3  -9   39.99    1.88
  -5  -3  -9   41.85    2.51
  -5   3  -9   42.77    2.20
  -6  -3  -9    3.64    1.24
  -6   3  -9    6.38    1.19
  -7  -3  -9    2.13    1.54
  -7   3  -9    3.13    1.24
   7  -4  -9   -0.60    1.37
  -7   4   9   -1.62    1.49
   6  -4  -9   88.02    4.02
  -6   4   9   84.61    4.14
   5  -4  -9   15.27    1.48
  -5   4   9   13.28    1.50
   4  -4  -9    7.61    1.05
  -4   4   9    7.49    1.13
  -4   4   9    7.56    0.66
   3  -4  -9   62.88    2.70
   3  -4  -9   65.67    2.83
  -3   4   9   69.01    2.10
  -3   4   9   64.22    2.90
   2  -4  -9   16.97    1.20
  -2   4   9   16.89    0.78
   2   4  -9   14.20    0.97
   2   4  -9   17.00    0.77
   1  -4  -9   31.67    2.18
   1  -4  -9   32.41    1.94
  -1  -4   9   30.61    1.04
   1   4  -9   27.47    1.26
  -1   4   9   32.61    1.55
   1   4  -9   30.22    1.49
   0  -4   9   92.08    2.74
   0  -4  -9   91.88    4.01
   0  -4  -9   91.97    2.80
   0   4   9   88.84    3.48
   0   4  -9   88.61    3.62
   0   4  -9   92.15    3.32
  -1  -4  -9  317.85   11.72
  -1  -4  -9  334.40    9.52
   1  -4   9  349.94    9.46
   1  -4   9  355.02   11.61
  -1   4  -9  334.22   12.07
   1   4   9  334.75   11.66
   1   4   9  342.46   11.83
   2  -4   9   17.88    1.13
  -2  -4  -9   20.49    0.74
  -2  -4  -9   21.09    1.56
  -2   4  -9   16.93    0.96
  -2   4  -9   17.89    0.88
   2   4   9   17.19    1.09
  -3  -4  -9   10.80    1.23
   3  -4   9   10.53    0.97
   3   4   9    9.91    0.85
  -3   4  -9    9.20    0.84
  -3   4  -9   10.27    0.91
  -4  -4  -9  100.80    4.30
  -4   4  -9  106.02    3.92
  -4   4  -9   99.76    3.51
  -5  -4  -9    5.37    1.16
  -5   4  -9    4.73    0.96
  -5   4  -9    6.38    0.74
  -6  -4  -9   23.49    2.30
  -6   4  -9   23.94    1.88
  -7  -4  -9    2.64    1.55
  -7   4  -9    2.10    1.20
   7  -5  -9    7.37    1.80
  -7   5   9    5.24    1.96
   6  -5  -9    7.04    1.49
  -6   5   9    1.87    1.48
   5  -5  -9   17.18    1.77
  -5   5   9   14.54    0.88
  -5   5   9   15.55    1.78
   4  -5  -9   16.11    1.49
  -4   5   9   15.44    1.69
  -4   5   9   18.82    0.98
   3  -5  -9   16.08    1.40
   3  -5  -9   16.33    1.28
   3   5  -9   18.39    1.05
  -3   5   9   16.88    0.90
   2  -5  -9   31.62    1.82
   2   5  -9   32.10    1.55
  -2   5   9   31.64    1.23
  -1  -5   9   26.19    0.97
   1  -5  -9   26.05    1.91
   1  -5  -9   23.48    1.13
   1  -5  -9   23.93    2.22
   1   5  -9   22.42    1.40
  -1   5   9   25.82    1.50
  -1   5   9   26.98    1.04
   0  -5  -9  106.92    3.25
   0  -5  -9   97.24    4.43
   0  -5   9  107.36    3.19
   0   5  -9  107.81    4.20
   0   5  -9  106.25    3.87
   0   5   9  103.55    4.06
   0   5   9  107.77    4.08
  -1  -5  -9   14.17    0.99
   1   5   9   15.26    1.11
  -1   5  -9   12.89    1.50
  -2  -5  -9   68.94    3.01
   2  -5   9   61.71    2.20
   2  -5   9   63.24    2.64
   2   5   9   58.91    2.58
  -2   5  -9   63.90    2.27
  -3  -5  -9   51.73    2.58
   3  -5   9   47.95    2.28
  -3   5  -9   48.33    2.05
  -3   5  -9   50.57    2.09
  -4  -5  -9    4.35    1.02
  -4   5  -9    4.12    0.86
  -4   5  -9    4.88    0.83
  -5  -5  -9    8.28    1.40
  -5   5  -9   10.83    1.13
  -5   5  -9    8.66    1.15
  -6  -5  -9    0.77    1.19
  -6   5  -9    0.47    1.00
  -7  -5  -9   23.37    2.69
  -7   5  -9   19.23    2.10
   7  -6  -9    3.71    1.75
   6  -6  -9    1.88    1.39
  -6   6   9    0.18    1.55
   5  -6  -9    3.14    1.19
  -5   6   9    3.38    1.38
  -5   6   9    3.18    0.62
   4  -6  -9  133.84    5.19
  -4   6   9  135.86    4.12
   3  -6  -9    4.66    0.96
  -3   6   9    6.28    0.65
   2  -6  -9    4.62    1.02
   2  -6  -9    3.91    0.67
  -2   6   9    4.93    0.56
   2   6  -9    4.38    0.77
  -1  -6   9  341.82    9.88
   1  -6  -9  351.27   10.02
   1  -6  -9  354.11   12.49
  -1   6   9  371.72    9.96
  -1   6   9  350.60   12.48
   1   6  -9  362.07   12.45
   0  -6   9    0.36    0.40
   0  -6  -9    0.61    1.12
   0  -6  -9    0.45    0.47
   0   6   9    0.51    0.65
   0   6  -9   -0.58    0.67
  -1  -6  -9   86.57    2.84
  -1  -6  -9   74.78    3.47
   1  -6   9   84.33    2.75
  -1   6  -9   88.12    3.84
   1   6   9   82.94    3.41
   2  -6   9   49.37    1.93
  -2  -6  -9   51.04    2.54
  -2   6  -9   48.58    1.98
  -3  -6  -9  102.00    4.27
  -3   6  -9   99.71    3.46
  -4  -6  -9   12.25    1.47
  -4   6  -9    8.52    1.14
  -5  -6  -9    3.69    1.19
  -5   6  -9    6.35    1.12
  -5   6  -9    5.77    1.04
  -6   6  -9   95.71    4.17
  -7   6  -9   -0.23    1.14
   7  -7  -9   -2.40    1.59
   6  -7  -9    4.82    1.62
   5  -7  -9   24.80    2.24
  -5   7   9   22.25    1.36
   4  -7  -9    0.46    1.13
  -4   7   9    0.68    0.55
   3  -7  -9    8.49    1.26
  -3   7   9    8.16    0.79
   2  -7  -9   32.26    2.20
   2  -7  -9   37.98    1.71
  -2   7   9   38.23    1.49
   1  -7  -9   10.63    1.73
   1  -7  -9    9.09    0.84
  -1  -7   9    9.45    0.75
   0  -7   9    8.26    0.75
   0  -7  -9    8.06    0.79
   0   7  -9    8.99    1.22
   0   7   9    8.88    1.10
   1  -7   9   14.97    1.08
  -1  -7  -9   16.06    1.14
  -1   7  -9   16.67    1.71
   2  -7   9   12.49    1.09
  -2   7  -9   13.64    1.14
  -3   7  -9   20.66    1.46
  -4   7  -9    3.16    0.96
  -5   7  -9   17.40    1.71
  -6   7  -9    2.76    0.57
   6  -8  -9   53.02    3.35
  -6   8   9   53.89    2.01
   5  -8  -9   13.57    1.81
  -5   8   9   11.34    1.08
   4  -8  -9    7.74    1.50
  -4   8   9    8.52    0.93
   3  -8  -9   47.29    2.66
  -3   8   9   48.75    1.92
   2  -8  -9   12.12    1.19
  -2   8   9   12.94    0.98
   1  -8  -9   11.11    1.09
  -1  -8   9   11.63    0.88
   0  -8  -9    1.32    0.57
   0  -8   9   -0.18    0.48
  -1  -8  -9  178.45    5.47
   1  -8   9  176.85    5.40
   2  -8   9   17.14    1.33
  -3   8  -9   27.22    1.73
  -4   8  -9   78.97    3.28
  -5   8  -9   -0.05    0.88
  -6   8  -9    4.41    0.79
  -6   9   9    0.92    0.64
  -5   9   9   -0.35    0.68
  -4   9   9   23.63    1.50
  -3   9   9   47.84    2.00
   2  -9  -9   17.98    1.47
   1  -9  -9   16.19    1.29
  -1  -9   9   16.20    1.03
   0  -9  -9   42.14    1.90
   0  -9   9   46.73    1.87
  -1  -9  -9    7.14    0.87
   1  -9   9    5.93    0.87
  -3   9  -9    9.54    1.18
  -4   9  -9    2.47    1.08
  -5   9  -9   21.99    1.97
  -5  10   9   -0.54    0.77
  -4  10   9   29.26    1.73
  -3  10   9   10.51    1.08
   2 -10  -9   -0.50    0.83
  -1 -10   9  106.86    3.29
   1 -10  -9  109.62    3.72
   0 -10  -9   27.69    1.58
   0 -10   9   29.26    1.53
   1 -10   9    3.46    0.88
  -1 -10  -9    4.03    0.72
   2 -10   9    6.46    1.09
  -3  10  -9   28.02    2.13
  -4  10  -9    8.93    1.38
  -5  10  -9    0.65    0.92
  -5  11   9   38.24    2.06
  -4  11   9    4.97    0.99
   2 -11  -9   20.65    1.78
   1 -11  -9   13.43    1.28
   0 -11  -9   25.41    1.62
   0 -11   9   26.12    1.52
   1 -11   9    7.02    1.09
  -1 -11  -9    7.93    0.73
   2 -11   9   53.51    2.55
   3 -11   9   23.01    1.94
  -4  11  -9    0.56    1.00
  -4  12   9    2.27    0.92
   3 -12  -9    9.54    1.47
   2 -12  -9   -1.05    0.99
   1 -12  -9   16.62    1.63
   0 -12   9   11.43    1.07
   0 -12  -9    9.05    1.09
   1 -12   9   52.48    2.41
   2 -12   9   16.61    1.61
   3 -12   9    6.05    1.34
  -4  12  -9    5.23    1.22
   3 -13  -9   45.30    2.65
   2 -13  -9    9.34    1.38
   1 -13  -9   18.56    1.75
   0 -13  -9    9.35    1.04
   0 -13   9    8.97    0.93
   1 -13   9    7.91    1.16
   2 -13   9    1.63    1.09
   3 -13   9   -0.30    1.16
   1 -14  -9    2.56    1.00
   1 -14   9    9.27    1.18
  -8   0  10    1.25    1.63
   8   0 -10    3.08    1.55
  -7   0  10    1.12    1.30
   7   0 -10    1.54    1.25
  -6   0  10    3.35    1.15
   6   0 -10    3.04    1.08
  -5   0  10   29.25    1.79
   5   0 -10   27.70    1.72
  -4   0  10   61.44    2.59
   4   0 -10   60.58    2.54
   3   0 -10  260.29    8.98
  -3   0  10  267.58    8.93
   3   0 -10  258.06    8.86
   2   0 -10  102.77    3.64
  -2   0  10  104.56    2.91
   2   0 -10  104.24    3.67
  -2   0  10  102.05    3.81
  -1   0  10  141.62    4.88
   1   0 -10  128.47    4.58
   1   0 -10  126.62    4.82
   0   0  10   10.36    1.25
   0   0 -10   10.07    0.60
   0   0  10    9.95    0.58
   0   0 -10    9.96    1.09
  -1   0 -10  133.21    5.21
   1   0  10  131.67    4.63
   1   0  10  136.69    4.90
  -1   0 -10  127.98    4.65
  -2   0 -10   14.24    0.77
  -2   0 -10   14.26    1.10
  -2   0 -10   16.25    0.99
   2   0  10   15.49    1.14
   2   0  10   14.37    0.80
   3   0  10  179.91    6.12
  -3   0 -10  165.94    5.03
  -3   0 -10  176.85    6.15
  -4   0 -10  198.38    7.07
  -5   0 -10   43.29    2.35
  -6   0 -10   93.78    4.24
  -7   0 -10   14.64    1.93
  -8  -1  10   18.98    2.37
   8  -1 -10   18.95    2.21
   8   1 -10   21.27    2.18
  -8   1  10   20.18    2.54
   7  -1 -10    6.34    1.53
  -7  -1  10    6.43    1.53
  -7   1  10    7.96    1.71
   7   1 -10    6.62    1.46
  -6  -1  10   13.55    1.51
   6  -1 -10   11.68    1.38
   6   1 -10   13.85    1.45
  -6   1  10   12.87    1.49
   5  -1 -10   27.04    1.76
  -5  -1  10   28.68    1.72
  -5   1  10   27.05    1.80
   5   1 -10   26.82    1.65
   4  -1 -10   14.23    1.19
  -4  -1  10   13.04    1.11
   4   1 -10   13.52    1.08
   4   1 -10   14.71    0.79
  -4   1  10   15.19    1.23
   3  -1 -10    8.66    0.78
  -3  -1  10   10.44    0.91
   3  -1 -10    9.89    0.97
   3   1 -10    9.31    0.85
  -3   1  10   11.83    1.06
  -3   1  10   10.07    0.43
   3   1 -10   10.02    0.64
   3   1 -10    9.46    0.54
  -2  -1  10   16.63    0.56
   2  -1 -10   18.99    0.95
   2  -1 -10   14.70    0.98
  -2   1  10   17.15    1.17
  -2   1  10   17.80    0.70
  -2   1  10   21.21    0.68
   2   1 -10   16.89    0.76
  -1  -1  10  286.61    9.50
   1  -1 -10  284.03    9.65
   1  -1 -10  274.71    9.85
  -1   1  10  283.43    9.57
  -1   1  10  291.81    9.92
   1   1 -10  271.99    9.75
   1   1 -10  282.66    9.55
   0  -1  10   28.16    1.71
   0  -1 -10   25.47    1.16
   0  -1 -10   25.86    1.67
   0  -1  10   26.33    1.08
   0   1  10   27.67    1.76
   0   1 -10   25.47    1.53
   0   1  10   25.91    1.11
   0   1 -10   26.05    1.09
  -1  -1 -10  110.43    3.35
   1  -1  10  119.18    4.34
   1  -1  10  115.18    4.03
   1   1  10  114.71    4.27
   1   1  10  109.43    4.02
  -1   1 -10  114.02    4.62
  -1   1 -10  114.80    4.02
   2  -1  10   76.21    2.83
   2  -1  10   76.80    3.14
  -2  -1 -10   73.17    3.02
  -2  -1 -10   75.01    2.36
   2   1  10   75.88    3.04
  -2   1 -10   79.54    2.84
  -2   1 -10   76.70    3.35
  -2   1 -10   76.04    2.36
   2   1  10   74.77    2.80
  -3  -1 -10    4.32    0.39
  -3  -1 -10    4.62    0.71
   3  -1  10    5.23    0.63
  -3   1 -10    4.73    0.59
  -3   1 -10    5.14    0.66
   3   1  10    4.66    0.54
  -4  -1 -10   16.45    1.27
  -4   1 -10   16.54    0.77
  -4   1 -10   16.79    1.24
  -5  -1 -10    2.66    0.92
  -5   1 -10    2.61    0.83
  -6  -1 -10   10.20    1.47
  -6   1 -10   12.13    1.46
  -7  -1 -10    6.08    1.56
  -7   1 -10    6.49    1.45
  -8  -2  10    8.35    1.91
   8  -2 -10    7.84    1.82
   8   2 -10    8.37    1.69
  -8   2  10    7.93    2.10
   7  -2 -10   35.12    2.71
  -7  -2  10   33.31    2.53
  -7   2  10   34.53    2.92
   7   2 -10   34.80    2.46
   6  -2 -10   22.41    1.99
  -6  -2  10   21.06    1.81
  -6   2  10   19.85    2.06
   6   2 -10   20.77    1.73
  -5  -2  10   13.03    1.27
   5   2 -10   10.90    1.19
   4  -2 -10    8.08    0.94
  -4  -2  10    8.42    0.88
   4   2 -10    8.05    0.52
  -4   2  10    7.38    0.97
   4   2 -10    7.71    0.84
  -3  -2  10    7.14    0.80
   3  -2 -10    6.95    0.83
   3  -2 -10    7.52    0.87
  -3   2  10    7.20    0.96
   3   2 -10    7.73    0.50
   3   2 -10    7.31    0.80
   3   2 -10    6.95    0.40
   2  -2 -10   10.81    0.91
   2   2 -10   12.14    0.87
   2   2 -10   11.65    0.56
  -1  -2  10  308.65    9.65
  -1  -2  10  294.36    7.83
  -1  -2  10  273.63    9.56
   1  -2 -10  284.61    9.84
   1  -2 -10  282.24   10.03
  -1   2  10  281.47    9.72
   1   2 -10  260.15    9.81
   1   2 -10  293.13    9.65
   0  -2  10  131.23    4.91
   0  -2 -10  117.55    4.85
   0  -2  10  120.13    4.30
   0  -2 -10  125.77    4.45
   0   2 -10  121.97    4.64
   0   2  10  124.01    4.85
   0   2  10  122.74    4.37
   0   2 -10  122.01    4.30
  -1  -2 -10  174.29    5.23
  -1  -2 -10  198.29    7.02
   1  -2  10  192.80    6.69
  -1  -2 -10  181.69    6.82
   1  -2  10  184.30    6.36
   1   2  10  177.21    6.36
  -1   2 -10  179.25    6.89
   1   2  10  180.52    6.56
  -2  -2 -10  123.05    4.57
  -2  -2 -10  124.15    3.51
   2  -2  10  121.92    4.31
   2  -2  10  115.66    4.62
  -2   2 -10  117.81    3.51
  -2   2 -10  113.92    4.17
   2   2  10  115.71    4.44
   2   2  10  120.02    4.27
  -2   2 -10  122.70    5.02
  -3  -2 -10   11.73    1.14
   3  -2  10   10.64    0.87
   3   2  10   11.77    0.78
  -3   2 -10   10.27    0.85
  -3   2 -10    8.21    0.79
  -4  -2 -10   54.65    2.64
  -4   2 -10   56.88    2.05
  -4   2 -10   55.34    2.38
  -5  -2 -10   22.45    1.91
  -5   2 -10   23.71    1.64
  -6  -2 -10   41.49    2.82
  -6   2 -10   45.18    2.53
  -7  -2 -10    8.32    1.79
  -7   2 -10    8.87    1.48
   7  -3 -10   11.09    1.84
   7   3 -10   11.71    1.58
  -7   3  10   12.32    2.07
   6  -3 -10   43.64    2.66
  -6  -3  10   43.43    2.50
  -6   3  10   43.34    2.80
   6   3 -10   45.14    2.39
   5  -3 -10   18.33    1.66
  -5  -3  10   18.70    1.49
  -5   3  10   20.90    1.77
   5   3 -10   21.53    1.43
  -4  -3  10   25.78    1.40
   4  -3 -10   24.84    1.60
   4   3 -10   24.19    1.35
  -4   3  10   23.65    1.69
  -4   3  10   23.09    0.92
  -3  -3  10  245.19    8.17
   3  -3 -10  233.01    8.28
   3  -3 -10  237.32    8.54
  -3   3  10  233.03    8.45
   3   3 -10  254.41    8.14
  -3   3  10  239.78    6.74
   3   3 -10  243.38    8.12
   2  -3 -10    9.88    0.99
   2  -3 -10   10.16    0.99
   2   3 -10    9.64    0.81
   2   3 -10    9.89    0.54
  -2   3  10    9.80    0.60
   1  -3 -10    5.41    1.11
  -1  -3  10    4.66    0.39
   1  -3 -10    6.48    1.01
   1  -3 -10    4.60    0.68
  -1   3  10    5.89    0.62
   1   3 -10    5.12    0.44
   1   3 -10    4.69    0.66
   0  -3 -10   91.42    4.09
   0  -3  10   99.22    2.85
   0  -3  10   93.97    3.45
   0  -3 -10   98.04    2.91
   0   3 -10   95.69    3.78
   0   3  10   98.82    4.03
   0   3 -10   95.46    3.45
   0   3  10   97.37    3.57
   1  -3  10   94.73    3.26
  -1  -3 -10   88.12    2.75
  -1  -3 -10   83.66    3.56
  -1  -3 -10   84.62    3.77
  -1   3 -10   86.53    3.79
   1   3  10   85.97    3.27
   1   3  10   88.43    3.51
   2  -3  10   15.88    0.99
   2   3  10   16.15    0.94
  -2   3 -10   13.53    0.84
   3  -3  10   16.86    1.10
  -3  -3 -10   15.74    1.31
  -3   3 -10   15.92    1.02
   3   3  10   16.78    0.99
  -3   3 -10   14.61    1.07
  -4  -3 -10   56.39    2.86
  -4   3 -10   57.67    2.26
  -4   3 -10   58.84    2.47
  -5  -3 -10    0.00    0.85
  -5   3 -10    0.93    0.79
  -5   3 -10    0.55    0.32
  -6  -3 -10    6.84    1.50
  -6   3 -10    6.31    1.21
  -7  -3 -10   13.32    2.22
  -7   3 -10   16.36    1.81
   7  -4 -10    1.19    1.50
  -7   4  10   -0.40    1.57
   6  -4 -10    4.53    1.30
  -6   4  10    2.90    1.39
   5  -4 -10   20.21    1.83
  -5   4  10   23.52    2.01
   4  -4 -10   18.97    1.52
  -4   4  10   18.91    1.70
  -4   4  10   19.21    0.92
   3  -4 -10   42.73    2.12
   3  -4 -10   42.18    2.07
  -3   4  10   42.82    1.51
   3   4 -10   44.66    1.77
   2  -4 -10   88.18    3.39
  -2   4  10   85.90    2.61
   2   4 -10   84.47    3.25
   1  -4 -10  138.59    4.06
   1  -4 -10  137.70    5.38
  -1  -4  10  132.93    3.90
   1  -4 -10  135.37    5.38
  -1   4  10  141.72    5.04
   1   4 -10  137.43    5.02
   1   4 -10  134.81    4.81
  -1   4  10  138.93    3.97
   0  -4 -10   46.93    2.68
   0  -4 -10   44.91    2.88
   0  -4 -10   46.18    1.65
   0  -4  10   47.41    1.57
   0   4  10   47.86    2.04
   0   4 -10   45.24    2.21
   0   4 -10   47.23    1.87
   1  -4  10   22.35    1.24
  -1  -4 -10   29.14    1.23
  -1   4 -10   23.09    1.80
   1   4  10   24.68    1.30
   2  -4  10   19.32    1.03
  -2  -4 -10   20.39    1.65
  -2  -4 -10   19.06    0.86
   2  -4  10   19.23    1.18
  -2   4 -10   18.83    0.95
  -2   4 -10   19.89    1.01
   2   4  10   18.78    1.13
  -3  -4 -10   50.94    2.62
   3  -4  10   50.31    2.25
  -3   4 -10   45.48    1.99
  -3   4 -10   52.64    2.09
  -4  -4 -10   60.31    3.05
  -4   4 -10   60.71    2.57
  -4   4 -10   59.14    2.45
  -5  -4 -10   37.63    2.54
  -5   4 -10   35.30    2.08
  -5   4 -10   38.61    1.74
  -6  -4 -10   24.99    2.47
  -6   4 -10   28.07    1.97
  -7  -4 -10   10.83    2.17
  -7   4 -10    9.59    1.55
   7  -5 -10    7.61    1.85
  -7   5  10    6.52    2.10
   6  -5 -10    1.22    1.28
  -6   5  10   -1.04    1.39
   5  -5 -10  157.44    5.96
  -5   5  10  157.50    6.22
  -5   5  10  149.00    4.55
   4  -5 -10   13.36    1.36
  -4   5  10   13.90    0.88
  -4   5  10   11.81    1.43
   3  -5 -10   27.84    1.78
  -3   5  10   28.68    1.21
   3   5 -10   29.96    1.48
   2  -5 -10    3.35    0.96
   2   5 -10    3.52    0.67
  -2   5  10    4.11    0.50
  -1  -5  10  198.82    5.63
   1  -5 -10  202.38    7.58
   1  -5 -10  199.85    5.80
   1  -5 -10  198.76    7.49
  -1   5  10  204.53    5.70
   1   5 -10  196.19    7.17
  -1   5  10  197.85    7.20
   0  -5  10   60.10    1.99
   0  -5 -10   61.66    2.07
   0  -5 -10   55.47    3.16
   0   5  10   60.27    2.61
   0   5 -10   61.99    2.38
   0   5 -10   60.83    2.75
  -1  -5 -10    7.67    1.26
   1  -5  10    7.96    0.74
  -1  -5 -10    9.07    0.82
   1   5  10    8.80    0.93
  -1   5 -10    7.87    0.66
  -1   5 -10    9.98    1.36
  -2  -5 -10  237.38    6.68
  -2  -5 -10  246.32    8.77
   2  -5  10  245.91    6.99
   2  -5  10  240.06    8.65
  -2   5 -10  232.65    6.83
   2   5  10  242.88    8.52
   3  -5  10    0.58    0.57
  -3  -5 -10    0.03    0.68
  -3   5 -10   -0.38    0.57
  -3   5 -10   -0.47    0.47
  -4  -5 -10    2.26    0.96
  -4   5 -10    0.47    0.72
  -4   5 -10    0.85    0.66
  -5  -5 -10    1.11    1.03
  -5   5 -10   -0.38    0.77
  -5   5 -10    0.65    0.67
  -6  -5 -10   12.34    1.94
  -6   5 -10   11.12    1.44
  -7  -5 -10    2.16    1.66
  -7   5 -10    3.20    1.25
   7  -6 -10   10.47    2.05
   6  -6 -10    6.66    1.62
   5  -6 -10    5.04    1.35
  -5   6  10    5.59    0.71
   4  -6 -10    5.93    1.18
  -4   6  10    4.65    0.65
   3  -6 -10    1.59    0.89
  -3   6  10    1.33    0.46
   2  -6 -10    2.67    1.02
   2  -6 -10    2.82    0.66
  -2   6  10    3.01    0.50
   1  -6 -10    3.43    1.48
   1   6 -10    3.92    0.81
   0  -6 -10   38.63    2.56
   0  -6 -10   47.05    1.73
   0  -6  10   47.55    1.65
   0   6  10   44.65    2.17
   0   6 -10   41.16    2.28
  -1  -6 -10   27.55    1.38
  -1  -6 -10   24.13    1.81
   1  -6  10   30.60    1.33
   1   6  10   26.42    1.59
  -1   6 -10   26.12    1.99
  -2  -6 -10    4.36    0.93
   2  -6  10    2.35    0.61
  -2   6 -10    3.24    0.69
  -3  -6 -10   24.54    1.86
  -3   6 -10   20.92    1.42
  -4  -6 -10   -0.10    0.86
  -4   6 -10   -0.31    0.71
  -5  -6 -10    0.84    1.05
  -5   6 -10    1.84    0.91
  -5   6 -10    2.30    0.90
  -6   6 -10   -1.02    0.96
   7  -7 -10    8.80    2.05
   6  -7 -10   -0.69    1.47
   5  -7 -10   55.30    3.05
  -5   7  10   50.53    2.10
   4  -7 -10    2.54    1.20
  -4   7  10    1.01    0.59
   3  -7 -10  149.09    5.66
  -3   7  10  148.59    4.51
   2  -7 -10    6.25    0.83
   2  -7 -10    8.03    1.36
  -2   7  10    6.99    0.67
  -1  -7  10   29.51    1.26
   1  -7 -10   29.15    2.54
   1  -7 -10   31.35    1.44
   0  -7 -10   62.16    3.14
   0  -7 -10   60.06    2.19
   0  -7  10   58.96    2.10
   0   7 -10   59.36    2.94
   0   7  10   60.70    2.80
  -1  -7 -10    3.01    0.96
   1  -7  10    1.56    0.56
  -1  -7 -10    1.55    0.61
  -1   7 -10    0.75    0.91
   2  -7  10   43.88    1.90
  -2   7 -10   42.10    1.92
  -3   7 -10    9.97    1.08
  -4   7 -10   48.61    2.41
  -5   7 -10    1.09    0.93
  -6   7 -10    3.79    0.62
   6  -8 -10    2.16    1.66
  -6   8  10    3.28    0.58
   5  -8 -10   -0.14    1.38
  -5   8  10   -0.57    0.63
   4  -8 -10   -0.21    1.27
  -4   8  10    0.84    0.63
   3  -8 -10    7.06    1.41
  -3   8  10    9.92    0.91
   2  -8 -10    8.43    0.95
  -2   8  10    9.39    0.90
  -1  -8  10   21.86    1.12
   1  -8 -10   22.46    1.35
   0  -8 -10    2.12    0.61
   0  -8  10    1.55    0.55
   1  -8  10   17.47    1.21
  -1  -8 -10   16.16    1.22
   2  -8  10   10.58    1.06
  -3   8 -10   20.23    1.58
  -4   8 -10   27.21    1.94
  -5   8 -10    0.97    0.99
  -6   8 -10    4.09    0.78
  -6   9  10    0.11    0.62
  -5   9  10   11.00    1.12
  -4   9  10    4.76    0.85
  -3   9  10   66.35    2.49
   2  -9 -10    0.07    0.75
  -1  -9  10    7.36    0.76
   1  -9 -10    6.95    0.96
   0  -9  10   23.00    1.34
   0  -9 -10   24.36    1.41
  -1  -9 -10    8.66    0.96
   1  -9  10    8.23    0.96
   2  -9  10   36.44    1.92
  -3   9 -10    2.38    0.92
  -4   9 -10   20.77    1.89
  -5   9 -10    0.77    1.02
  -5  10  10   -0.66    0.74
  -4  10  10    0.14    0.72
  -3  10  10    5.28    0.90
   2 -10 -10    0.57    0.92
   1 -10 -10   28.17    1.70
  -1 -10  10   27.16    1.18
   0 -10 -10    3.23    0.77
   0 -10  10    4.13    0.76
  -1 -10 -10   19.39    1.28
   1 -10  10   20.39    1.50
   2 -10  10    8.08    1.16
  -4  10 -10   22.45    2.00
  -5  10 -10    9.03    1.43
  -5  11  10    5.14    1.03
  -4  11  10    4.48    0.97
   2 -11 -10    0.16    0.94
   1 -11 -10    2.88    0.91
   0 -11  10    1.16    0.70
   0 -11 -10    0.66    0.71
   1 -11  10    8.48    1.14
  -1 -11 -10    8.92    0.79
   2 -11  10   25.88    1.91
   3 -11  10    9.05    1.41
  -4  11 -10    1.29    1.07
  -4  12  10    4.43    0.99
   3 -12 -10   14.95    1.64
   2 -12 -10    2.78    1.12
   1 -12 -10   35.17    2.03
   0 -12 -10    7.75    1.04
   0 -12  10    9.16    0.98
   1 -12  10   28.40    1.81
   2 -12  10    1.57    1.08
   3 -12  10    6.50    1.38
  -4  12 -10   25.11    2.10
   3 -13 -10    4.29    1.37
   2 -13 -10    3.86    1.22
   1 -13 -10   25.25    1.88
   0 -13 -10   -0.09    0.67
   0 -13  10    0.23    0.63
   1 -13  10   -0.12    0.89
   2 -13  10   -0.86    1.02
   3 -13  10   11.77    1.61
   1 -14 -10   18.58    1.75
   1 -14  10   19.20    1.63
   8   0 -11   -1.31    1.42
  -8   0  11   -1.58    1.60
   7   0 -11   -0.89    1.21
  -7   0  11   -0.43    1.32
  -6   0  11    0.43    1.08
   6   0 -11    0.64    1.01
   5   0 -11    0.18    0.68
  -5   0  11    0.14    0.70
  -4   0  11    0.14    0.63
   4   0 -11   -0.38    0.59
   3   0 -11    0.27    0.39
  -3   0  11    0.10    0.60
   3   0 -11    0.35    0.55
   2   0 -11    0.35    0.27
   2   0 -11    1.25    0.51
   2   0 -11   -0.33    0.52
  -2   0  11    0.10    0.16
   1   0 -11   12.51    1.04
   1   0 -11   12.10    0.68
   0   0 -11   -0.05    0.26
   0   0  11    0.13    0.25
   0   0  11    0.40    0.80
   0   0 -11   -0.10    0.64
   1   0  11    2.29    0.36
   1   0  11    2.52    0.66
  -1   0 -11    1.13    0.79
  -2   0 -11    0.28    0.33
  -2   0 -11   -0.04    0.60
  -2   0 -11    0.06    0.41
   2   0  11   -0.28    0.58
   2   0  11   -0.05    0.31
  -3   0 -11    0.29    0.44
   3   0  11    0.12    0.34
  -4   0 -11    1.19    0.64
  -5   0 -11    1.32    0.81
  -6   0 -11    1.62    1.04
  -7   0 -11    2.07    1.29
  -8  -1  11    6.71    1.97
   8  -1 -11    4.54    1.65
  -8   1  11    5.54    1.97
   8   1 -11    5.23    1.68
   7  -1 -11   27.26    2.59
  -7  -1  11   28.03    2.48
   7   1 -11   29.88    2.38
  -7   1  11   29.68    2.84
  -6  -1  11    1.21    1.01
   6  -1 -11    0.58    0.92
  -6   1  11    0.97    1.00
   6   1 -11    1.34    0.99
   5  -1 -11  114.82    4.60
  -5  -1  11  121.96    4.63
   5   1 -11  122.61    4.56
  -5   1  11  117.08    4.70
   4  -1 -11    8.68    1.00
  -4  -1  11    8.63    0.96
   4   1 -11    8.64    0.97
  -4   1  11    8.25    1.04
   3  -1 -11  114.79    4.24
  -3  -1  11  120.22    4.28
   3  -1 -11  114.33    4.27
   3   1 -11  112.71    4.13
  -3   1  11  118.18    3.28
  -3   1  11  118.02    4.39
   3   1 -11  117.70    4.18
   2  -1 -11  102.21    3.84
  -2  -1  11  112.71    3.00
   2  -1 -11  106.04    3.90
   2   1 -11  103.47    3.98
  -2   1  11  108.32    3.69
   2   1 -11  107.59    3.75
  -2   1  11  110.45    3.07
  -1  -1  11   54.60    1.58
   1  -1 -11   51.46    2.32
  -1  -1  11   50.68    1.86
   1  -1 -11   52.72    2.03
   1   1 -11   48.56    1.91
   1   1 -11   52.66    2.21
  -1   1  11   51.77    1.94
   0  -1  11  229.98    8.30
   0  -1  11  221.53    7.69
   0  -1 -11  225.26    7.77
   0  -1 -11  221.69    8.24
   0   1  11  224.18    8.28
   0   1  11  232.48    7.74
   0   1 -11  226.35    7.71
   0   1 -11  219.92    8.11
  -1  -1 -11   26.98    1.93
  -1  -1 -11   28.38    1.11
   1  -1  11   22.58    1.15
   1  -1  11   29.05    1.60
  -1  -1 -11   29.00    1.74
  -1   1 -11   23.31    1.80
   1   1  11   32.44    1.59
   1   1  11   25.54    1.17
   2  -1  11  262.26    9.31
  -2  -1 -11  260.20    7.38
  -2  -1 -11  259.91    9.08
   2  -1  11  264.29    9.01
   2   1  11  258.80    8.99
  -2   1 -11  268.25    8.84
   2   1  11  260.25    9.22
  -2   1 -11  259.82    7.39
  -3  -1 -11   25.28    1.01
   3  -1  11   27.28    1.30
  -3  -1 -11   26.25    1.51
  -3   1 -11   26.98    1.34
  -3   1 -11   23.55    1.25
   3   1  11   26.24    1.23
  -4  -1 -11   12.75    1.28
  -4   1 -11   11.61    1.11
  -4   1 -11   10.42    0.70
  -5  -1 -11   17.12    1.58
  -5   1 -11   17.57    1.54
  -6  -1 -11    1.02    0.99
  -6   1 -11    1.56    0.97
  -7  -1 -11   29.45    2.84
  -7   1 -11   34.55    2.55
   8  -2 -11    2.42    1.66
   8   2 -11    1.22    1.53
  -8   2  11    0.69    1.88
   7  -2 -11    1.85    1.37
  -7  -2  11    0.98    1.32
   7   2 -11    2.86    1.27
  -7   2  11    4.24    1.66
  -6  -2  11    4.15    1.15
   6  -2 -11    5.13    1.27
   6   2 -11    4.54    1.10
  -6   2  11    5.35    1.41
  -5  -2  11    6.18    1.04
   5  -2 -11    6.66    1.12
   5   2 -11    7.15    1.01
  -5   2  11    6.45    1.19
  -4  -2  11    1.01    0.61
   4  -2 -11    0.33    0.63
   4   2 -11    0.43    0.33
  -4   2  11    0.25    0.69
   4   2 -11    0.11    0.54
  -3  -2  11  121.82    4.39
   3  -2 -11  123.49    4.44
   3  -2 -11  117.20    4.48
   3   2 -11  117.51    4.28
  -3   2  11  122.09    4.61
  -3   2  11  123.03    3.45
   2  -2 -11   35.27    1.57
   2  -2 -11   30.73    1.53
  -2   2  11   32.73    1.29
  -2   2  11   30.89    1.07
   2   2 -11   28.51    1.48
   2   2 -11   29.35    1.21
  -1  -2  11   13.38    0.62
   1  -2 -11   17.12    1.31
  -1   2  11   15.95    0.79
   1   2 -11   11.18    0.66
   0  -2  11    1.46    0.29
   0  -2 -11    1.21    0.84
   0  -2 -11    1.85    0.46
   0   2 -11    1.24    0.31
   0   2 -11    1.80    0.69
   0   2  11    0.28    0.85
   0   2  11    1.65    0.38
   1  -2  11    7.28    0.97
  -1  -2 -11    7.42    0.67
   1  -2  11    7.45    0.63
  -1  -2 -11    9.13    1.37
  -1  -2 -11    9.65    1.29
   1   2  11    8.15    0.94
   1   2  11    6.85    0.63
  -1   2 -11    8.47    1.26
  -2  -2 -11    0.50    0.73
   2  -2  11    1.20    0.75
  -2  -2 -11    1.35    0.40
   2  -2  11    1.28    0.41
  -2   2 -11    0.97    0.36
   2   2  11    1.04    0.62
  -2   2 -11    1.01    0.39
   2   2  11    1.86    0.43
   3  -2  11   14.26    1.03
  -3  -2 -11   17.39    1.38
   3   2  11   18.19    0.98
  -3   2 -11   14.38    1.07
  -3   2 -11   15.88    1.04
  -4  -2 -11   80.01    3.63
  -4   2 -11   83.77    3.32
  -4   2 -11   85.62    2.85
  -5  -2 -11    3.58    1.05
  -5   2 -11    2.96    0.86
  -6  -2 -11    2.64    1.23
  -6   2 -11    2.58    1.01
  -7  -2 -11    1.86    1.54
  -7   2 -11    5.13    1.32
   7  -3 -11    7.35    1.73
  -7   3  11    8.49    2.03
  -6  -3  11    2.85    1.07
   6  -3 -11    2.80    1.26
  -6   3  11    1.31    1.35
   6   3 -11    2.76    1.01
   5  -3 -11   87.22    3.72
  -5  -3  11   85.75    3.52
   5   3 -11   87.11    3.47
  -5   3  11   83.58    3.85
   4  -3 -11    3.93    0.89
  -4  -3  11    4.72    0.76
   4   3 -11    4.50    0.70
  -4   3  11    3.60    0.98
  -4   3  11    3.40    0.37
   3  -3 -11   30.02    1.63
  -3  -3  11   30.97    1.53
   3  -3 -11   30.35    1.59
  -3   3  11   28.65    1.77
   3   3 -11   29.36    1.41
  -3   3  11   29.31    1.10
   3   3 -11   31.08    1.44
   2  -3 -11   70.59    2.96
   2  -3 -11   72.27    2.86
   2   3 -11   73.51    2.55
   2   3 -11   66.63    2.74
  -2   3  11   69.74    2.15
  -1  -3  11    9.23    0.52
   1  -3 -11   11.15    1.00
   1  -3 -11    8.29    1.41
   1  -3 -11   11.51    1.32
  -1   3  11   11.17    0.78
   1   3 -11   13.01    0.98
   1   3 -11    8.03    0.59
   0  -3  11  101.11    3.59
   0  -3 -11   97.51    4.40
   0  -3 -11   97.98    3.02
   0  -3  11  101.05    2.97
   0  -3 -11   95.66    4.26
   0   3 -11   99.94    3.94
   0   3 -11  101.47    3.59
   0   3  11  106.55    4.24
   0   3  11   96.00    3.67
  -1  -3 -11   10.92    0.81
  -1  -3 -11    8.64    1.15
  -1  -3 -11    9.29    1.43
   1  -3  11    8.86    0.74
   1   3  11   10.86    0.79
  -1   3 -11    8.52    1.27
  -2  -3 -11  213.65    7.70
   2  -3  11  205.88    7.33
  -2  -3 -11  212.31    5.97
  -2   3 -11  208.91    7.04
   2   3  11  203.07    7.30
  -2   3 -11  207.08    5.95
  -3  -3 -11    4.30    0.94
   3  -3  11    3.79    0.67
  -3   3 -11    3.53    0.66
  -3   3 -11    3.14    0.58
   3   3  11    4.50    0.60
  -4  -3 -11    6.20    1.08
  -4   3 -11    6.55    0.82
  -4   3 -11    5.72    0.82
  -5  -3 -11   45.21    2.81
  -5   3 -11   43.65    2.32
  -5   3 -11   49.77    1.66
  -6  -3 -11    4.31    1.43
  -6   3 -11    5.41    1.18
  -7  -3 -11    3.68    1.75
  -7   3 -11    5.44    1.37
   7  -4 -11    6.05    1.67
  -7   4  11    4.38    1.92
   6  -4 -11   20.56    2.18
  -6   4  11   19.59    2.22
   5  -4 -11    6.06    1.21
  -5   4  11    5.58    1.37
   4  -4 -11    0.54    0.84
  -4   4  11    0.90    0.37
  -4   4  11   -0.33    0.95
   3  -4 -11    0.86    0.77
   3   4 -11   -0.29    0.51
  -3   4  11    0.33    0.33
   2  -4 -11   63.39    2.72
   2  -4 -11   60.67    3.03
  -2   4  11   64.05    1.99
   2   4 -11   59.98    2.51
   1  -4 -11  265.26    7.50
   1  -4 -11  258.19    9.46
  -1  -4  11  263.88    7.35
   1  -4 -11  260.98    9.62
  -1   4  11  272.54    7.40
   1   4 -11  284.24    9.08
  -1   4  11  258.58    9.24
   1   4 -11  251.71    9.26
   0  -4 -11    8.05    1.38
   0  -4 -11    7.99    1.66
   0  -4 -11    7.41    0.71
   0  -4  11    6.08    0.59
   0   4  11    6.76    0.81
   0   4 -11    7.28    1.02
   0   4 -11    7.36    0.65
  -1  -4 -11    4.30    0.62
   1  -4  11    3.96    0.52
   1  -4  11    6.00    0.68
  -1  -4 -11    3.66    1.12
  -1   4 -11    4.54    0.49
   1   4  11    5.50    0.71
   1   4  11    4.45    0.92
  -1   4 -11    4.44    1.09
  -2  -4 -11   74.17    3.38
  -2  -4 -11   73.06    2.34
   2  -4  11   71.91    2.94
   2   4  11   72.62    2.91
  -2   4 -11   73.15    2.37
  -2   4 -11   77.88    2.74
   3  -4  11    2.00    0.63
  -3  -4 -11    1.38    0.77
  -3   4 -11    1.83    0.65
  -3   4 -11    1.91    0.54
  -4  -4 -11   18.90    1.78
  -4   4 -11   16.87    1.38
  -4   4 -11   18.16    1.28
  -5  -4 -11    0.97    1.06
  -5   4 -11    0.59    0.58
  -5   4 -11    0.94    0.78
  -6  -4 -11   51.38    3.40
  -6   4 -11   46.77    2.60
  -7  -4 -11    1.50    1.67
  -7   4 -11    1.39    1.17
   7  -5 -11   26.59    2.82
   6  -5 -11    2.98    1.38
  -6   5  11    0.29    1.48
   5  -5 -11    1.51    1.10
  -5   5  11   -0.21    1.20
  -5   5  11    0.13    0.38
   4  -5 -11    1.90    0.97
  -4   5  11    0.59    0.44
   3  -5 -11   27.21    1.71
  -3   5  11   29.95    1.22
   2  -5 -11   11.53    1.48
   2   5 -11   11.21    1.02
  -2   5  11    9.77    0.70
   1  -5 -11    1.48    0.94
   1  -5 -11    0.77    0.47
   1  -5 -11   -0.26    1.42
  -1  -5  11    0.71    0.32
   1   5 -11    0.78    0.60
  -1   5  11    0.50    0.35
  -1   5  11    0.72    0.56
   0  -5 -11  196.93    5.71
   0  -5  11  196.63    5.64
   0  -5 -11  190.68    7.44
   0   5 -11  188.60    7.22
   0   5 -11  209.66    6.94
   0   5  11  192.92    7.06
  -1  -5 -11   30.69    1.44
  -1  -5 -11   24.34    1.98
   1  -5  11   32.42    1.33
  -1   5 -11   32.62    1.22
  -1   5 -11   31.08    2.09
   1   5  11   30.86    1.63
  -2  -5 -11   20.83    0.89
   2  -5  11   19.36    1.09
  -2  -5 -11   17.97    1.61
  -2   5 -11   18.62    0.97
   2   5  11   18.32    1.21
  -3  -5 -11    2.35    0.86
  -3   5 -11    2.68    0.72
  -3   5 -11    2.19    0.60
  -4  -5 -11   20.79    1.89
  -4   5 -11   17.91    1.52
  -4   5 -11   18.80    1.40
  -5  -5 -11    2.23    1.16
  -5   5 -11    3.49    0.84
  -5   5 -11    2.13    0.87
  -6  -5 -11    1.64    1.31
  -6   5 -11    2.19    1.08
  -7  -5 -11   12.74    2.36
  -7   5 -11   12.86    1.69
   7  -6 -11    6.07    1.92
   6  -6 -11   19.13    2.13
   5  -6 -11    5.66    1.38
  -5   6  11    3.35    0.62
   4  -6 -11   70.44    3.32
  -4   6  11   71.92    2.44
   3  -6 -11  141.53    5.41
  -3   6  11  145.01    4.31
   2  -6 -11    8.71    0.85
   2  -6 -11    9.75    1.29
  -2   6  11   10.90    0.77
  -1  -6  11   12.97    0.76
   1  -6 -11   13.06    0.97
   1  -6 -11   13.33    1.93
  -1   6  11   13.79    0.81
   1   6 -11   12.66    1.26
  -1   6  11   14.22    1.23
   0  -6  11    1.76    0.47
   0  -6 -11    1.49    0.53
   0  -6 -11    0.37    1.17
   0   6  11    2.64    0.72
   0   6 -11    1.77    0.81
  -1  -6 -11   62.76    2.31
  -1  -6 -11   58.69    2.94
   1  -6  11   62.40    2.21
  -1   6 -11   64.92    3.20
   1   6  11   63.33    2.75
  -2  -6 -11    5.80    1.08
   2  -6  11    5.86    0.75
  -2  -6 -11    5.26    0.46
  -2   6 -11    5.31    0.77
  -3  -6 -11    1.12    0.85
  -3   6 -11    2.54    0.78
  -4  -6 -11  173.25    6.65
  -4   6 -11  149.85    5.35
  -5  -6 -11   -0.37    0.99
  -5   6 -11    2.68    0.94
  -6  -6 -11    3.77    1.53
   7  -7 -11   12.24    2.25
   6  -7 -11   -1.20    1.51
   5  -7 -11    4.20    1.46
  -5   7  11    3.08    0.71
   4  -7 -11   22.97    2.13
  -4   7  11   23.09    1.30
   3  -7 -11   13.06    1.47
  -3   7  11   11.57    0.95
   2  -7 -11    4.07    1.30
   2  -7 -11    4.64    0.75
  -2   7  11    6.15    0.68
   1  -7 -11   16.18    2.05
  -1  -7  11   15.56    0.90
   1  -7 -11   15.54    1.11
   0  -7 -11   51.71    2.00
   0  -7  11   50.12    1.88
   0  -7 -11   50.61    2.88
   0   7  11   52.37    2.54
   0   7 -11   53.01    2.72
  -1  -7 -11    1.66    0.63
  -1  -7 -11    3.05    0.88
   1  -7  11    0.76    0.56
  -2  -7 -11   23.67    1.80
   2  -7  11   21.49    1.37
  -2   7 -11   21.29    1.42
  -3   7 -11   49.39    2.26
  -4   7 -11    4.92    1.09
  -5   7 -11   10.65    1.45
  -6   7 -11    0.80    0.50
   6  -8 -11    5.92    1.88
  -6   8  11    6.66    0.71
   5  -8 -11   13.63    1.92
  -5   8  11   11.92    1.11
   4  -8 -11   -0.35    1.28
  -4   8  11    0.29    0.60
   3  -8 -11   -0.50    1.19
  -3   8  11    0.72    0.58
   2  -8 -11   49.26    3.03
   2  -8 -11   50.34    2.19
  -2   8  11   53.37    1.97
  -1  -8  11  127.85    3.98
   1  -8 -11  132.42    4.17
   0  -8  11   17.45    1.12
   0  -8 -11   20.48    1.25
  -1  -8 -11    1.86    0.68
   1  -8  11    2.47    0.69
   2  -8  11  101.64    3.55
  -3   8 -11    0.68    0.76
  -4   8 -11    1.37    0.97
  -5   8 -11   -0.51    0.95
  -6   8 -11   46.54    2.05
  -6   9  11    4.29    0.77
  -5   9  11   39.24    1.96
  -4   9  11   -0.03    0.66
  -3   9  11    6.04    0.86
   2  -9 -11   88.54    3.25
   1  -9 -11   16.79    1.35
  -1  -9  11   17.06    1.06
   0  -9  11    0.32    0.57
   0  -9 -11    0.69    0.62
  -1  -9 -11   21.84    1.39
   1  -9  11   21.27    1.44
   2  -9  11   44.90    2.14
  -3   9 -11    2.12    0.95
  -4   9 -11    2.80    1.09
  -5   9 -11   50.52    2.87
  -5  10  11    1.16    0.81
  -4  10  11   21.09    1.53
  -3  10  11   51.00    2.20
   2 -10 -11   13.37    1.39
  -1 -10  11    4.30    0.56
   1 -10 -11    4.13    0.92
   0 -10 -11    2.92    0.79
   0 -10  11    2.62    0.73
  -1 -10 -11   38.77    1.79
   1 -10  11   39.46    1.98
   2 -10  11    0.60    0.88
  -4  10 -11   50.74    2.68
  -5  10 -11    2.68    1.13
  -5  11  11    5.97    1.04
  -4  11  11   21.83    1.62
   2 -11 -11    2.35    1.05
   1 -11 -11    9.52    1.15
   0 -11  11  125.16    4.09
   0 -11 -11  124.60    4.22
  -1 -11 -11    1.84    0.58
   1 -11  11    1.81    0.88
   2 -11  11   12.05    1.35
   3 -11  11   25.18    2.05
  -4  11 -11    7.13    1.34
  -4  12  11    1.26    0.87
   3 -12 -11    0.19    1.16
   2 -12 -11    5.85    1.22
   1 -12 -11   35.11    2.06
   0 -12  11    4.98    0.86
   0 -12 -11    5.20    0.93
   1 -12  11   10.59    1.22
   2 -12  11    9.42    1.38
   3 -12  11    2.15    1.23
   3 -13 -11    6.43    1.40
   2 -13 -11   38.17    2.37
   1 -13 -11    1.68    0.99
   0 -13  11    9.88    0.94
   0 -13 -11    8.78    1.01
   1 -13  11    5.04    1.06
   2 -13  11   36.64    2.25
   1 -14 -11    8.32    1.20
  -8   0  12   -0.78    1.73
   8   0 -12   -2.59    1.41
   7   0 -12   35.76    2.60
  -7   0  12   31.57    2.81
  -6   0  12    7.86    1.44
   6   0 -12    7.21    1.31
   5   0 -12   37.09    2.02
  -5   0  12   34.76    2.11
  -4   0  12  178.99    6.42
   4   0 -12  176.09    6.29
   3   0 -12    6.44    0.77
  -3   0  12    6.23    0.91
   2   0 -12    4.72    0.73
  -2   0  12    4.33    0.35
   2   0 -12    3.68    0.77
   2   0 -12    4.03    0.46
   1   0 -12   36.90    1.85
   1   0 -12   36.06    1.50
  -1   0  12   38.76    1.21
   0   0  12   46.75    1.80
   0   0 -12   44.13    2.34
   0   0 -12   47.51    1.83
   0   0  12   46.65    2.50
   1   0  12    1.77    0.76
  -1   0 -12    1.46    0.63
  -1   0 -12    2.15    0.95
   1   0  12    2.28    0.39
  -1   0 -12    2.01    0.40
  -2   0 -12  169.57    6.17
   2   0  12  174.50    6.13
   2   0  12  185.98    6.48
  -2   0 -12  170.81    5.09
  -3   0 -12  100.73    3.10
  -3   0 -12  104.25    3.94
   3   0  12  102.39    3.78
  -4   0 -12   49.54    2.39
  -5   0 -12   51.04    2.62
  -6   0 -12    2.29    1.09
  -7   0 -12    0.36    1.21
   8  -1 -12    4.17    1.66
  -8  -1  12    5.14    1.94
  -8   1  12    2.62    1.98
   8   1 -12    2.56    1.57
  -7  -1  12    5.71    1.63
   7  -1 -12    4.70    1.52
   7   1 -12    6.53    1.47
  -7   1  12    4.87    1.76
  -6  -1  12   21.88    1.99
   6  -1 -12   22.55    1.85
   6   1 -12   23.04    1.89
  -6   1  12   19.46    1.97
   5  -1 -12    9.55    1.22
  -5  -1  12    7.76    1.16
  -5   1  12    9.23    1.33
   5   1 -12    9.14    1.11
   4  -1 -12   10.93    1.09
  -4  -1  12   11.90    1.19
   4   1 -12   11.12    1.08
  -4   1  12   12.49    1.23
  -3  -1  12  136.48    4.87
   3  -1 -12  132.58    4.77
   3  -1 -12  129.11    4.82
   3   1 -12  133.22    4.70
  -3   1  12  130.93    3.71
  -3   1  12  130.92    4.96
   2  -1 -12   68.36    2.65
   2  -1 -12   64.72    2.91
  -2  -1  12   71.55    1.99
   2  -1 -12   66.96    2.70
   2   1 -12   67.53    2.49
   2   1 -12   66.74    2.78
   2   1 -12   68.67    2.61
  -2   1  12   70.15    2.43
  -2   1  12   71.53    2.05
   1  -1 -12  108.67    3.97
  -1  -1  12  114.64    3.15
   1  -1 -12  108.68    4.26
  -1  -1  12  106.77    3.81
  -1   1  12  113.34    3.89
   1   1 -12  109.11    3.87
  -1   1  12  109.31    3.15
   1   1 -12  107.64    4.16
   0  -1  12   61.07    2.30
   0  -1 -12   59.43    2.92
   0  -1 -12   64.12    2.40
   0   1  12   65.32    3.03
   0   1  12   62.13    2.33
   0   1 -12   62.92    2.32
   0   1 -12   58.78    2.77
  -1  -1 -12   35.49    2.09
  -1  -1 -12   33.56    1.33
   1  -1  12   33.44    1.47
   1  -1  12   39.27    1.95
  -1  -1 -12   35.73    2.25
  -1   1 -12   35.57    1.26
   1   1  12   34.26    1.48
   1   1  12   35.15    1.83
  -1   1 -12   34.13    2.22
  -2  -1 -12   41.23    1.55
  -2  -1 -12   40.40    2.08
   2  -1  12   42.35    1.77
   2  -1  12   43.70    2.18
  -2   1 -12   40.25    1.54
  -2   1 -12   42.53    1.81
   2   1  12   45.87    2.12
   2   1  12   41.50    1.74
   3  -1  12    0.54    0.42
  -3  -1 -12    0.80    0.61
   3   1  12    0.55    0.37
  -3   1 -12    0.52    0.35
  -3   1 -12    0.96    0.46
  -4  -1 -12   58.83    2.89
  -4   1 -12   61.71    2.67
  -4   1 -12   66.10    2.14
  -5  -1 -12    4.28    1.07
  -5   1 -12    5.70    1.03
  -6  -1 -12   14.57    1.81
  -6   1 -12   18.93    1.83
  -7  -1 -12    6.23    1.72
  -7   1 -12    6.15    1.46
   8  -2 -12   -1.64    1.64
   8   2 -12   -1.73    1.38
  -8   2  12   -1.22    2.02
   7  -2 -12    0.91    1.39
  -7  -2  12   -0.78    1.33
  -7   2  12   -0.99    1.56
   7   2 -12    1.03    1.23
  -6  -2  12   34.32    2.32
   6  -2 -12   34.65    2.42
   6   2 -12   36.65    2.20
  -6   2  12   32.75    2.64
  -5  -2  12    8.19    1.12
   5  -2 -12    5.63    1.07
   5   2 -12    7.47    1.01
  -5   2  12    5.90    1.17
  -4  -2  12   15.24    1.27
   4  -2 -12   13.25    1.22
   4   2 -12   13.01    1.13
  -4   2  12   13.38    1.37
  -4   2  12   13.50    0.51
   3  -2 -12   52.94    2.30
  -3  -2  12   55.30    2.36
   3   2 -12   53.76    2.18
  -3   2  12   54.66    2.53
  -3   2  12   53.53    1.67
   2  -2 -12  310.53   10.72
   2  -2 -12  305.45   10.42
   2  -2 -12  309.39   10.93
  -2  -2  12  309.06    8.40
   2   2 -12  296.77   10.67
  -2   2  12  314.81    8.54
   2   2 -12  315.13   10.45
   1  -2 -12    4.62    0.88
  -1  -2  12    5.58    0.42
  -1  -2  12    5.28    0.41
   1  -2 -12    6.78    0.73
   1  -2 -12    4.45    1.12
  -1   2  12    4.81    0.51
  -1   2  12    5.06    0.46
   1   2 -12    4.66    0.73
   1   2 -12    5.13    0.46
   0  -2 -12  116.14    4.91
   0  -2 -12  121.49    5.02
   0  -2  12  125.95    3.49
   0  -2  12  116.99    4.23
   0   2  12  120.05    4.88
   0   2 -12  117.55    4.24
   0   2  12  118.55    4.30
   0   2 -12  124.10    4.67
  -1  -2 -12   53.70    2.69
  -1  -2 -12   46.72    1.74
   1  -2  12   50.23    1.99
   1   2  12   48.32    2.32
  -1   2 -12   47.36    2.66
  -1   2 -12   51.08    1.64
   1   2  12   49.91    2.00
  -2  -2 -12    0.90    0.45
   2  -2  12    0.48    0.67
  -2  -2 -12    1.01    0.81
   2  -2  12    1.64    0.46
   2   2  12    1.06    0.42
  -2   2 -12    1.26    0.41
  -2   2 -12    1.36    0.44
  -3  -2 -12    0.98    0.67
   3  -2  12    1.76    0.53
   3   2  12    1.68    0.46
  -3   2 -12    1.18    0.50
  -4  -2 -12   48.92    2.68
  -4   2 -12   55.15    2.41
  -4   2 -12   57.11    2.15
  -5  -2 -12   27.38    2.19
  -5   2 -12   27.30    1.77
  -6  -2 -12   13.59    1.96
  -6   2 -12   13.51    1.56
  -7  -2 -12   56.48    3.94
  -7   2 -12   58.35    3.25
   7  -3 -12   11.63    1.84
  -7   3  12    9.11    2.06
   6  -3 -12   29.21    2.34
   6   3 -12   29.69    2.08
  -6   3  12   27.65    2.60
   5  -3 -12   38.74    2.33
  -5  -3  12   36.46    2.13
  -5   3  12   34.53    2.50
   5   3 -12   40.25    2.07
   4  -3 -12   75.06    3.09
  -4  -3  12   74.08    2.98
  -4   3  12   70.22    3.28
   4   3 -12   74.77    2.89
  -4   3  12   70.21    2.22
   3  -3 -12    1.63    0.74
  -3  -3  12    3.65    0.76
  -3   3  12    1.21    0.32
   3   3 -12    2.72    0.57
   3   3 -12    1.18    0.60
   2  -3 -12  127.05    4.62
   2  -3 -12  128.12    5.02
   2  -3 -12  127.44    4.80
   2   3 -12  120.28    4.61
  -2   3  12  126.76    3.66
   1  -3 -12   73.73    3.41
   1  -3 -12   76.79    3.34
  -1  -3  12   75.16    2.24
  -1   3  12   76.68    2.28
  -1   3  12   72.13    2.87
   1   3 -12   78.59    2.76
   1   3 -12   71.83    3.01
   0  -3 -12   35.83    2.29
   0  -3 -12   33.88    2.50
   0  -3 -12   34.42    1.34
   0  -3  12   35.25    1.26
   0  -3  12   34.02    1.46
   0   3  12   34.46    1.56
   0   3 -12   32.45    1.86
   0   3  12   36.05    2.23
   0   3 -12   35.55    1.48
  -1  -3 -12   28.64    2.18
  -1  -3 -12   31.35    2.25
  -1  -3 -12   32.35    1.39
   1  -3  12   35.12    1.52
   1  -3  12   34.49    1.28
  -1   3 -12   35.76    1.26
   1   3  12   32.99    1.53
  -1   3 -12   30.18    2.15
   1   3  12   33.40    1.91
   2  -3  12  253.64    8.78
  -2  -3 -12  250.78    7.19
  -2  -3 -12  255.17    9.18
   2   3  12  251.40    8.76
  -2   3 -12  248.59    7.12
  -2   3 -12  250.51    8.45
  -3  -3 -12   97.48    4.17
   3  -3  12   99.18    3.73
  -3   3 -12   90.24    3.27
  -3   3 -12   97.04    3.57
  -4  -3 -12    6.40    1.24
  -4   3 -12    5.86    0.83
  -4   3 -12    5.24    0.84
  -5  -3 -12   42.02    2.83
  -5   3 -12   41.75    2.24
  -5   3 -12   46.96    1.67
  -6  -3 -12    8.43    1.70
  -6   3 -12    8.48    1.31
  -7  -3 -12   -0.64    1.52
  -7   3 -12    2.49    1.22
   7  -4 -12   13.81    2.04
   6  -4 -12    1.67    1.26
  -6   4  12    1.73    1.49
   5  -4 -12   17.86    1.86
  -5   4  12   17.08    1.95
   4  -4 -12   74.82    3.25
  -4   4  12   72.98    2.34
   3  -4 -12    5.64    1.01
   3   4 -12    6.19    0.81
  -3   4  12    6.70    0.59
   2  -4 -12    5.89    1.18
   2  -4 -12    4.65    0.96
   2   4 -12    6.21    0.82
  -2   4  12    4.66    0.47
   1  -4 -12    1.55    1.47
   1  -4 -12    2.33    0.52
  -1  -4  12    2.16    0.35
   1  -4 -12    3.09    1.01
  -1   4  12    1.83    0.36
  -1   4  12    2.41    0.59
   1   4 -12    2.54    0.68
   0  -4 -12   46.63    2.95
   0  -4 -12   51.86    2.91
   0  -4 -12   51.34    1.80
   0  -4  12   50.29    1.71
   0   4  12   49.90    2.18
   0   4 -12   50.54    2.44
   0   4 -12   51.96    2.04
  -1  -4 -12   10.68    0.90
  -1  -4 -12    6.86    1.35
   1  -4  12    8.96    0.84
  -1   4 -12    6.11    1.20
   1   4  12   10.92    0.90
  -2  -4 -12  106.90    3.40
  -2  -4 -12  109.16    4.68
   2  -4  12  111.07    4.21
  -2   4 -12  120.34    3.96
  -2   4 -12  112.18    3.39
   2   4  12  109.10    4.17
  -3  -4 -12   52.95    2.84
   3  -4  12   49.97    2.30
  -3   4 -12   52.28    2.15
  -3   4 -12   47.07    2.09
  -4  -4 -12    6.28    1.31
  -4   4 -12    7.28    1.03
  -4   4 -12    7.47    0.93
  -5  -4 -12    4.52    1.34
  -5   4 -12    4.24    0.97
  -5   4 -12    5.35    0.84
  -6  -4 -12   -0.84    1.18
  -6   4 -12   -0.32    0.94
  -7  -4 -12   -2.23    1.48
  -7   4 -12    0.10    1.15
   7  -5 -12   19.39    2.37
   6  -5 -12    7.36    1.66
   5  -5 -12   36.53    2.40
  -5   5  12   31.71    1.33
   4  -5 -12    8.56    1.33
  -4   5  12    9.31    0.83
   3  -5 -12   36.76    2.13
  -3   5  12   38.86    1.46
   2  -5 -12  158.53    6.17
   2  -5 -12  148.51    5.67
   2   5 -12  156.70    5.68
  -2   5  12  152.68    4.50
   1  -5 -12   15.71    2.00
  -1  -5  12   14.13    0.74
   1  -5 -12   13.18    0.93
   1   5 -12   12.89    1.19
  -1   5  12   13.83    1.12
  -1   5  12   15.57    0.79
   0  -5 -12  321.49    9.07
   0  -5  12  327.60    8.99
   0  -5 -12  315.94   11.48
   0   5  12  314.25   11.19
   0   5 -12  321.35   11.40
  -1  -5 -12   33.29    1.53
  -1  -5 -12   27.87    2.11
   1  -5  12   34.75    1.41
  -1   5 -12   33.11    2.20
   1   5  12   35.03    1.73
  -1   5 -12   35.80    1.30
   2  -5  12   47.57    1.81
  -2  -5 -12   45.36    1.64
  -2  -5 -12   47.08    2.60
  -2   5 -12   45.69    1.69
  -3  -5 -12   35.80    2.35
  -3   5 -12   36.52    1.70
  -3   5 -12   32.74    1.76
  -4  -5 -12   27.24    2.25
  -4   5 -12   28.42    1.63
  -4   5 -12   26.08    1.77
  -5  -5 -12   37.55    2.92
  -5   5 -12   40.63    2.15
  -5   5 -12   40.86    2.24
  -6  -5 -12    5.56    1.67
  -6   5 -12    6.61    1.24
  -7  -5 -12   32.80    3.50
  -7   5 -12   35.83    2.45
   7  -6 -12   -0.19    1.72
   6  -6 -12   -1.77    1.36
   5  -6 -12    0.28    1.27
  -5   6  12   -0.15    0.50
   4  -6 -12    0.63    1.15
  -4   6  12    0.87    0.51
   3  -6 -12   10.67    1.36
  -3   6  12   13.59    0.90
   2  -6 -12   16.23    1.64
  -2   6  12   16.60    0.94
   1  -6 -12    3.75    1.59
  -1  -6  12    8.27    0.64
   1  -6 -12    6.43    0.72
   1   6 -12    5.79    0.96
   0  -6 -12    7.81    1.51
   0  -6 -12    8.00    0.76
   0  -6  12    7.20    0.68
   0   6 -12    7.37    1.13
   0   6  12    8.11    0.97
  -1  -6 -12   19.21    1.70
   1  -6  12   22.41    1.16
  -1  -6 -12   21.61    1.27
  -1   6 -12   20.31    1.84
   1   6  12   20.63    1.41
  -2  -6 -12    3.86    0.95
   2  -6  12    2.96    0.67
  -3  -6 -12    2.22    0.97
  -3   6 -12    2.62    0.79
  -4  -6 -12    3.76    1.23
  -4   6 -12    2.13    0.94
  -5  -6 -12   12.01    1.86
  -5   6 -12   12.05    1.45
  -6  -6 -12   -0.89    1.21
   7  -7 -12   19.73    2.55
   6  -7 -12   -1.59    1.52
   5  -7 -12   59.58    3.28
  -5   7  12   54.43    2.20
   4  -7 -12   14.73    1.72
  -4   7  12   13.51    1.08
   3  -7 -12    0.13    1.14
  -3   7  12    0.66    0.50
   2  -7 -12  117.97    3.83
   2  -7 -12  113.93    4.79
  -2   7  12  117.03    3.62
   1  -7 -12    8.04    1.75
  -1  -7  12    9.48    0.76
   1  -7 -12   10.53    0.95
   0  -7 -12  168.04    5.12
   0  -7 -12  167.68    6.67
   0  -7  12  172.80    5.03
   0   7  12  172.90    6.40
   0   7 -12  160.85    6.55
  -1  -7 -12    5.01    1.04
   1  -7  12    3.42    0.65
  -1  -7 -12    4.96    0.80
  -2  -7 -12   77.32    3.66
   2  -7  12   80.68    2.87
  -2   7 -12   80.49    2.91
  -3  -7 -12   35.49    2.43
  -3   7 -12   32.86    1.92
  -4   7 -12   -1.06    0.85
  -5   7 -12   54.98    2.90
  -6   7 -12    1.39    0.53
   6  -8 -12    2.96    1.81
  -6   8  12    3.42    0.58
   5  -8 -12    5.27    1.68
  -5   8  12    6.65    0.91
   4  -8 -12   -1.03    1.27
  -4   8  12    1.13    0.64
   3  -8 -12    1.70    1.30
  -3   8  12    1.66    0.61
   2  -8 -12    7.37    1.03
   2  -8 -12    6.73    1.54
  -2   8  12    7.78    0.81
  -1  -8  12    1.48    0.49
   1  -8 -12    0.60    0.66
   0  -8 -12    1.30    0.60
   0  -8  12    0.22    0.52
  -1  -8 -12   13.62    1.19
   2  -8  12    1.93    0.80
  -3   8 -12   23.38    1.68
  -4   8 -12   -0.52    0.87
  -5   8 -12    1.08    1.01
  -6   8 -12    2.23    0.71
  -6   9  12    0.62    0.62
  -5   9  12   12.13    1.17
  -4   9  12    0.55    0.70
  -3   9  12    3.75    0.77
   2  -9 -12   59.04    2.53
   1  -9 -12    8.01    0.99
  -1  -9  12    7.98    0.78
   0  -9  12   63.24    2.34
   0  -9 -12   60.49    2.45
  -1  -9 -12    2.55    0.74
   1  -9  12    1.20    0.69
   2  -9  12   43.42    2.12
  -3   9 -12    5.15    1.06
  -4   9 -12   -0.30    0.94
  -5   9 -12   32.26    2.36
  -5  10  12    0.40    0.80
  -4  10  12    8.99    1.05
  -3  10  12    1.97    0.76
   2 -10 -12   17.22    1.51
  -1 -10  12    4.48    0.57
   1 -10 -12    2.92    0.90
   0 -10  12    0.81    0.67
   0 -10 -12    0.85    0.71
  -1 -10 -12    1.99    0.69
   1 -10  12    1.56    0.80
   2 -10  12    6.82    1.14
   3 -10  12    0.01    0.94
  -4  10 -12    5.54    1.27
  -5  10 -12    1.08    1.07
  -4  11  12    1.13    0.85
   2 -11 -12    2.71    1.07
   1 -11 -12   24.10    1.73
   0 -11  12   40.25    1.89
   0 -11 -12   39.22    2.01
  -1 -11 -12   -0.36    0.51
   1 -11  12    0.38    0.83
   2 -11  12   -0.17    0.96
   3 -11  12    1.12    1.08
  -4  11 -12    0.38    1.07
  -4  12  12   27.01    1.77
   3 -12 -12   -1.16    1.13
   2 -12 -12    1.48    1.09
   1 -12 -12    4.33    1.03
   0 -12 -12    0.83    0.76
   0 -12  12    0.75    0.70
   1 -12  12    1.83    0.93
   2 -12  12   16.30    1.62
   3 -12  12    9.59    1.46
   3 -13 -12    9.32    1.52
   2 -13 -12    2.62    1.18
   1 -13 -12    0.09    0.94
   0 -13  12    0.04    0.61
   0 -13 -12    0.14    0.70
   1 -13  12   22.45    1.75
   2 -13  12   -1.80    0.99
  -8   0  13   -1.95    1.75
   8   0 -13   -1.31    1.48
  -7   0  13    0.40    1.52
   7   0 -13   -1.23    1.23
   6   0 -13    0.37    1.01
  -6   0  13   -0.20    1.20
   5   0 -13   -0.49    0.83
  -5   0  13    0.38    0.96
  -4   0  13   -0.04    0.79
   4   0 -13   -0.05    0.67
   3   0 -13    0.13    0.60
  -3   0  13    0.86    0.80
   2   0 -13    0.02    0.31
   2   0 -13   -0.37    0.64
  -2   0  13   -0.06    0.19
   2   0 -13    0.81    0.66
   1   0 -13    0.46    0.32
   1   0 -13    0.56    0.62
  -1   0  13    0.40    0.23
   0   0 -13   -0.02    0.74
   0   0  13    0.11    0.29
   0   0 -13    0.05    0.31
  -1   0 -13    4.97    0.91
  -1   0 -13    3.54    1.10
   1   0  13    6.39    0.60
  -2   0 -13    0.16    0.38
  -2   0 -13    0.69    0.52
   2   0  13    0.29    0.37
   2   0  13   -0.23    0.70
  -3   0 -13    0.64    0.50
  -3   0 -13    0.50    0.35
   3   0  13    0.23    0.38
  -4   0 -13    1.34    0.71
  -5   0 -13    1.26    0.79
  -6   0 -13    0.41    0.98
  -7   0 -13    0.10    1.21
   8  -1 -13    3.97    1.69
  -8  -1  13   -1.11    1.80
   8   1 -13    0.20    1.54
   7  -1 -13   13.03    1.81
  -7  -1  13   14.55    2.09
  -7   1  13   15.76    2.20
   7   1 -13   15.22    1.85
  -6  -1  13   -0.21    1.10
   6  -1 -13    1.04    1.10
   6   1 -13    0.95    1.03
  -6   1  13    0.55    1.28
  -5  -1  13   12.97    1.44
   5  -1 -13   12.42    1.37
   5   1 -13   13.29    1.39
  -5   1  13   11.44    1.41
  -4  -1  13   56.01    2.60
   4  -1 -13   56.47    2.53
   4   1 -13   55.96    2.44
  -4   1  13   56.40    2.74
   3  -1 -13    1.94    0.70
  -3  -1  13    0.86    0.79
   3   1 -13    1.21    0.60
  -3   1  13    1.61    0.25
   2  -1 -13  309.83   10.73
  -2  -1  13  332.43    8.75
   2  -1 -13  304.14   11.21
   2  -1 -13  322.10   10.98
   2   1 -13  322.52   10.84
   2   1 -13  308.55   11.09
  -2   1  13  333.13    8.81
   2   1 -13  318.89   10.67
   1  -1 -13   13.21    1.43
   1  -1 -13   10.76    0.78
  -1  -1  13   10.61    0.55
   1  -1 -13   10.57    1.20
  -1  -1  13   10.84    0.58
  -1   1  13   11.03    0.66
  -1   1  13   10.80    0.57
   1   1 -13   11.38    1.12
   1   1 -13   10.58    0.65
   0  -1 -13  273.84    9.36
   0  -1  13  256.57    8.91
   0  -1 -13  252.19    9.53
   0   1  13  265.40    9.61
   0   1 -13  253.41    9.39
   0   1 -13  258.97    8.93
   0   1  13  264.99    8.95
   1  -1  13   54.62    2.22
  -1  -1 -13   57.30    3.07
  -1  -1 -13   57.07    2.78
   1  -1  13   63.93    2.77
  -1  -1 -13   58.29    1.97
  -1   1 -13   53.34    3.00
  -1   1 -13   57.72    1.87
   1   1  13   56.22    2.23
   1   1  13   61.86    2.64
  -1   1 -13   54.43    2.33
  -2  -1 -13   47.69    1.78
   2  -1  13   50.83    2.43
  -2  -1 -13   47.63    2.37
   2  -1  13   50.01    2.02
   2   1  13   48.82    1.99
  -2   1 -13   46.05    1.74
  -2   1 -13   50.30    2.04
  -3  -1 -13   72.58    2.27
   3  -1  13   72.78    2.83
  -3  -1 -13   68.68    3.09
   3   1  13   69.04    2.77
  -3   1 -13   74.81    2.90
  -3   1 -13   72.35    2.41
  -4  -1 -13    0.30    0.72
  -4   1 -13    0.84    0.63
  -4   1 -13    0.43    0.43
  -5  -1 -13  123.88    5.44
  -5   1 -13  139.94    5.24
  -6  -1 -13    1.95    1.17
  -6   1 -13    5.09    1.17
  -7  -1 -13    9.01    1.91
  -7   1 -13   11.09    1.75
   7  -2 -13    3.56    1.50
  -7  -2  13    0.59    1.48
  -7   2  13    1.18    1.72
   7   2 -13    2.31    1.34
   6  -2 -13   22.18    2.10
  -6  -2  13   17.35    2.08
   6   2 -13   21.55    1.85
  -6   2  13   21.78    2.39
  -5  -2  13    4.82    1.07
   5  -2 -13    7.50    1.27
   5   2 -13    6.02    1.01
  -5   2  13    5.47    1.38
  -4  -2  13    2.88    0.85
   4  -2 -13    2.72    0.80
   4   2 -13    3.27    0.74
  -4   2  13    2.93    0.97
  -4   2  13    3.33    0.28
  -3  -2  13   26.07    1.66
   3  -2 -13   26.56    1.58
   3   2 -13   26.40    1.39
  -3   2  13   24.08    0.95
   3   2 -13   27.27    1.55
  -2  -2  13   21.58    0.75
   2  -2 -13   21.42    1.65
   2  -2 -13   24.58    1.44
   2  -2 -13   22.02    1.31
   2   2 -13   24.07    1.43
   2   2 -13   22.57    1.39
  -2   2  13   21.92    0.88
   1  -2 -13    3.55    1.29
   1  -2 -13    1.94    0.49
   1  -2 -13    2.96    0.83
  -1  -2  13    4.58    0.43
  -1  -2  13    2.89    0.33
   1   2 -13    3.82    0.45
  -1   2  13    4.60    0.52
   1   2 -13    4.55    0.77
   0  -2  13    0.28    0.28
   0  -2 -13    0.78    0.39
   0  -2 -13   -0.66    1.25
   0  -2  13    0.15    0.28
   0  -2 -13   -0.40    0.89
   0   2 -13    0.32    0.28
   0   2  13   -0.02    0.31
   0   2 -13   -0.45    0.65
   0   2  13    0.31    0.95
   1  -2  13   54.88    2.28
  -1  -2 -13   57.05    3.09
  -1  -2 -13   61.83    2.04
  -1   2 -13   56.11    1.88
   1   2  13   69.63    2.75
   1   2  13   57.74    2.30
  -1   2 -13   51.15    2.99
  -2  -2 -13   29.41    1.33
   2  -2  13   30.06    1.44
  -2  -2 -13   29.59    1.98
   2   2  13   29.44    1.40
  -2   2 -13   29.69    1.38
  -2   2 -13   28.24    1.26
   3  -2  13    4.45    0.67
  -4  -2 -13    3.00    0.92
  -4   2 -13    5.28    0.79
  -4   2 -13    5.47    0.81
  -5  -2 -13    2.32    1.16
  -5   2 -13    1.42    0.80
  -6  -2 -13    0.73    1.20
  -6   2 -13    3.55    1.09
  -7  -2 -13   -0.54    1.45
  -7   2 -13    3.48    1.29
   7  -3 -13   25.21    2.64
  -7   3  13   20.81    2.64
   6  -3 -13   -0.07    1.18
  -6   3  13    1.08    1.45
   6   3 -13    1.86    1.11
   5  -3 -13    1.21    1.08
   5   3 -13    0.93    0.81
  -5   3  13    0.76    1.24
   4  -3 -13   35.42    2.07
  -4  -3  13   34.65    1.98
   4   3 -13   36.91    1.81
  -4   3  13   36.52    1.26
  -4   3  13   34.36    2.32
   3  -3 -13    1.27    0.80
  -3   3  13    0.78    0.32
   3   3 -13   -0.09    0.60
   3   3 -13    0.54    0.56
   2  -3 -13  128.26    4.97
   2  -3 -13  138.39    5.35
   2  -3 -13  131.46    5.09
  -2   3  13  133.59    3.90
   2   3 -13  141.73    4.99
   1  -3 -13    5.33    1.09
   1  -3 -13    2.69    1.42
  -1  -3  13    5.09    0.48
   1   3 -13    5.04    0.53
   1   3 -13    6.43    0.85
  -1   3  13    5.80    0.53
  -1   3  13    5.67    0.65
   0  -3 -13  167.28    6.60
   0  -3  13  165.73    5.88
   0  -3 -13  169.27    6.69
   0  -3 -13  171.36    4.89
   0  -3  13  170.06    4.83
   0   3  13  176.79    6.64
   0   3 -13  168.67    5.88
   0   3 -13  158.03    6.25
   0   3  13  163.60    5.97
  -1  -3 -13    3.25    1.30
  -1  -3 -13    6.69    0.70
   1  -3  13    4.06    0.51
   1  -3  13    4.15    0.56
  -1   3 -13    3.53    0.44
  -1   3 -13    4.23    1.17
   1   3  13    5.96    0.72
  -2  -3 -13   23.49    1.18
  -2  -3 -13   23.33    1.90
   2  -3  13   22.06    1.26
  -2   3 -13   21.72    1.17
   2   3  13   24.94    1.27
  -2   3 -13   22.83    1.06
  -3  -3 -13  166.95    6.56
   3  -3  13  171.97    6.09
  -3   3 -13  161.70    5.84
  -4  -3 -13   -0.10    0.90
  -4   3 -13    0.36    0.57
  -4   3 -13    0.90    0.67
  -5  -3 -13   11.98    1.82
  -5   3 -13   11.88    1.33
  -5   3 -13   14.26    0.93
  -6  -3 -13   -0.64    1.17
  -6   3 -13    0.12    0.93
  -7  -3 -13   29.31    3.23
  -7   3 -13   28.39    2.42
   7  -4 -13    5.12    1.78
   6  -4 -13    7.11    1.61
   5  -4 -13    3.27    1.25
   4  -4 -13  111.95    4.47
  -4   4  13  114.16    3.41
   3  -4 -13    0.21    0.77
  -3   4  13    0.27    0.36
   3   4 -13    0.48    0.66
   2  -4 -13   33.14    2.22
   2  -4 -13   38.19    2.14
  -2   4  13   36.46    1.33
   2   4 -13   37.18    1.85
   1  -4 -13  117.22    3.52
  -1  -4  13  116.00    3.36
   1  -4 -13  114.61    4.80
   1  -4 -13  113.01    4.96
  -1   4  13  118.35    3.41
   1   4 -13  109.14    4.40
  -1   4  13  115.42    4.30
   0  -4 -13   45.30    1.65
   0  -4 -13   42.90    3.02
   0  -4  13   44.18    1.56
   0   4  13   42.32    1.96
   0   4 -13   42.80    2.26
   0   4 -13   44.92    1.85
  -1  -4 -13   20.84    1.19
   1  -4  13   21.19    1.07
  -1  -4 -13   15.98    1.90
  -1   4 -13   19.71    1.87
  -1   4 -13   23.71    1.03
   1   4  13   22.50    1.26
   2  -4  13    0.66    0.52
  -2  -4 -13    0.96    0.48
  -2  -4 -13    0.28    0.87
  -2   4 -13    0.50    0.39
  -2   4 -13    1.14    0.42
   2   4  13    0.58    0.49
   3  -4  13   33.42    1.79
  -3  -4 -13   38.10    2.39
  -3   4 -13   31.27    1.70
  -3   4 -13   33.49    1.63
  -4  -4 -13    7.78    1.45
  -4   4 -13    7.75    1.09
  -4   4 -13    6.97    0.90
  -5  -4 -13    0.48    1.14
  -5   4 -13    2.57    0.71
  -5   4 -13    0.42    0.77
  -6  -4 -13    0.76    1.43
  -6   4 -13    1.30    0.99
  -7  -4 -13   32.14    3.40
  -7   4 -13   35.06    2.46
   7  -5 -13   -0.08    1.69
   6  -5 -13    1.57    1.42
   5  -5 -13   19.00    1.92
  -5   5  13   15.68    0.93
   4  -5 -13    1.93    1.13
  -4   5  13    1.85    0.49
   3  -5 -13   21.55    1.79
  -3   5  13   22.40    1.06
   2  -5 -13   76.28    3.65
   2  -5 -13   75.09    3.30
   2   5 -13   73.87    3.15
  -2   5  13   79.32    2.45
   1  -5 -13    4.10    0.60
   1  -5 -13    2.81    1.60
  -1  -5  13    4.39    0.46
  -1   5  13    5.44    0.77
  -1   5  13    4.66    0.50
   1   5 -13    3.77    0.81
   0  -5 -13    1.02    0.49
   0  -5  13    1.01    0.41
   0  -5 -13    1.43    1.43
   0   5 -13    1.17    0.80
   0   5  13    1.46    0.62
   1  -5  13    3.11    0.51
  -1  -5 -13    3.34    1.04
  -1  -5 -13    3.92    0.67
  -1   5 -13    3.98    0.55
  -1   5 -13    4.03    1.06
   1   5  13    4.99    0.73
  -2  -5 -13   10.47    0.82
   2  -5  13   10.24    0.94
  -2  -5 -13    9.18    1.30
  -2   5 -13   11.10    0.83
  -3  -5 -13    1.07    0.86
  -3   5 -13    0.37    0.66
  -4  -5 -13   13.21    1.77
  -4   5 -13   10.39    1.26
  -4   5 -13    9.74    1.14
  -5  -5 -13   33.56    2.83
  -5   5 -13   29.90    1.98
  -5   5 -13   32.96    1.98
  -6  -5 -13    1.19    1.44
  -6   5 -13    0.83    1.00
  -7  -5 -13   -1.85    1.53
  -7   5 -13   -1.48    1.11
   7  -6 -13   -1.34    1.70
   6  -6 -13   77.82    4.15
   5  -6 -13    5.59    1.52
  -5   6  13    7.87    0.80
   4  -6 -13   28.53    2.23
  -4   6  13   24.85    1.32
   3  -6 -13   46.86    2.52
  -3   6  13   50.88    1.83
   2  -6 -13   16.60    1.72
  -2   6  13   16.66    0.94
   1  -6 -13   10.14    0.92
   1  -6 -13   10.82    1.82
  -1  -6  13   12.72    0.76
   1   6 -13   11.25    1.27
  -1   6  13   12.42    0.87
   0  -6  13    0.27    0.42
   0  -6 -13    0.64    0.50
   0  -6 -13   -1.65    1.19
   0   6  13    0.52    0.61
   0   6 -13    0.26    0.79
  -1  -6 -13  222.60    6.33
   1  -6  13  218.13    6.18
  -1  -6 -13  179.37    7.70
   1   6  13  215.82    7.62
  -2  -6 -13   68.56    2.39
  -2  -6 -13   72.82    3.56
   2  -6  13   83.53    2.74
  -2   6 -13   79.22    2.52
  -3  -6 -13    2.84    1.06
  -3   6 -13    4.03    0.88
  -4  -6 -13   13.13    1.84
  -4   6 -13   12.25    1.40
  -5  -6 -13    3.96    1.43
  -5   6 -13    5.74    1.18
  -6  -6 -13    0.51    1.38
   7  -7 -13    6.47    2.06
   6  -7 -13    9.76    1.98
   5  -7 -13   15.39    1.96
  -5   7  13   11.09    1.02
   4  -7 -13   16.04    1.87
  -4   7  13   16.48    1.14
   3  -7 -13   -0.03    1.15
  -3   7  13    0.96    0.54
   2  -7 -13   69.91    2.58
   2  -7 -13   67.40    3.41
  -2   7  13   66.90    2.34
   1  -7 -13    5.61    0.79
   1  -7 -13    3.99    1.65
  -1  -7  13    5.61    0.59
   0  -7 -13   33.23    1.56
   0  -7 -13   31.60    2.57
   0  -7  13   31.29    1.44
   0   7  13   33.64    1.92
  -1  -7 -13   21.53    1.37
  -1  -7 -13   19.97    1.72
   1  -7  13   22.18    1.29
   2  -7  13   54.18    2.11
  -2  -7 -13   50.31    2.68
  -2  -7 -13   40.44    1.50
  -2   7 -13   51.62    2.13
  -3  -7 -13   12.85    1.67
  -3   7 -13   13.64    1.31
  -4  -7 -13   -0.23    1.00
  -4   7 -13   -0.63    0.82
  -5   7 -13   23.52    2.06
  -6   7 -13    0.97    0.51
   6  -8 -13    6.62    1.95
   5  -8 -13    1.37    1.57
  -5   8  13    3.66    0.82
   4  -8 -13   64.78    3.59
  -4   8  13   65.20    2.43
   3  -8 -13   46.77    2.97
  -3   8  13   46.44    1.91
   2  -8 -13   17.56    1.44
  -2   8  13   18.56    1.15
   1  -8 -13  175.28    6.93
  -1  -8  13  160.51    5.01
   1  -8 -13  170.69    5.21
   0  -8 -13   18.20    1.25
   0  -8  13   17.13    1.12
   1  -8  13    6.11    0.87
  -1  -8 -13    5.07    0.84
   2  -8  13   -0.14    0.70
  -3   8 -13   19.59    1.65
  -4   8 -13   35.26    2.24
  -5   8 -13    2.00    1.08
  -6   8 -13   25.28    1.51
  -6   9  13    0.22    0.59
  -5   9  13   -0.90    0.68
  -4   9  13   36.99    1.80
  -3   9  13    8.35    0.92
   2  -9 -13    2.96    0.91
   1  -9 -13   13.30    1.27
  -1  -9  13   11.04    0.94
   0  -9  13   85.71    2.95
   0  -9 -13   83.97    3.07
   1  -9  13    2.77    0.78
  -1  -9 -13    2.12    0.75
   2  -9  13    3.10    0.86
  -3   9 -13   97.23    3.67
  -4   9 -13    8.44    1.36
  -5   9 -13    1.22    1.05
  -5  10  13    9.68    1.15
  -4  10  13    2.42    0.82
  -3  10  13    3.86    0.83
   2 -10 -13    2.85    1.05
  -1 -10  13    4.61    0.58
   1 -10 -13    4.28    0.96
   0 -10  13    0.98    0.67
   0 -10 -13    1.03    0.74
  -1 -10 -13   69.68    2.61
   1 -10  13   67.24    2.73
   2 -10  13   42.28    2.23
   3 -10  13    2.39    1.02
  -4  10 -13    2.72    1.17
  -5  10 -13    2.56    1.13
  -4  11  13    3.78    0.94
  -3  11  13    3.35    0.93
   2 -11 -13   79.76    3.23
   1 -11 -13    0.28    0.88
   0 -11  13   10.52    1.08
   0 -11 -13   11.19    1.18
  -1 -11 -13   36.53    1.61
   1 -11  13   35.64    2.00
   2 -11  13   32.57    2.09
   3 -11  13    1.95    1.16
  -4  11 -13    0.95    1.07
  -4  12  13   18.16    1.60
   3 -12 -13   16.59    1.77
   2 -12 -13    4.32    1.19
   1 -12 -13    5.80    1.11
   0 -12 -13    9.49    1.11
   0 -12  13    9.30    1.02
   1 -12  13    1.84    0.94
   2 -12  13   -0.80    0.99
   3 -12  13   12.76    1.63
   3 -13 -13    0.02    1.25
   2 -13 -13    2.48    1.17
   1 -13 -13    3.04    1.04
   0 -13 -13   69.61    2.68
   0 -13  13   72.32    2.49
   1 -13  13    1.29    0.96
   2 -13  13   -0.92    1.04
   8   0 -14   21.82    2.67
   7   0 -14    5.53    1.54
  -7   0  14    5.30    1.86
  -6   0  14   78.03    3.99
   6   0 -14   81.77    3.69
   5   0 -14    4.34    1.06
  -5   0  14    2.41    1.18
   4   0 -14    5.34    0.90
  -4   0  14    5.79    1.12
  -3   0  14  121.19    3.37
   3   0 -14  120.70    4.44
   3   0 -14  121.53    4.73
   2   0 -14  133.22    4.70
   2   0 -14  129.12    5.00
  -2   0  14  131.77    3.74
   2   0 -14  131.28    4.74
   1   0 -14   74.46    3.33
  -1   0  14   82.83    2.92
   1   0 -14   79.84    2.99
   1   0 -14   77.70    3.31
  -1   0  14   84.34    2.40
   0   0  14  253.45    8.60
   0   0 -14  244.19    9.17
   0   0 -14  249.57    8.64
   0   0 -14  253.24    8.87
   1   0  14  623.83   21.22
  -1   0 -14  613.26   20.99
  -1   0 -14  644.71   22.12
  -1   0 -14  643.62   17.31
   1   0  14  620.02   21.59
  -2   0 -14   35.00    1.82
  -2   0 -14   36.68    1.51
   2   0  14   38.32    1.65
  -3   0 -14   15.15    0.93
  -3   0 -14   15.79    1.27
   3   0  14   14.62    0.98
  -4   0 -14    7.70    0.57
  -4   0 -14    8.19    1.10
  -5   0 -14   23.04    1.91
  -6   0 -14    9.74    1.54
  -7   0 -14   32.48    2.82
   7  -1 -14    0.14    1.35
  -7  -1  14   -2.01    1.45
   7   1 -14    1.00    1.31
  -7   1  14   -2.19    1.54
  -6  -1  14   16.94    1.90
   6  -1 -14   16.50    1.73
  -6   1  14   17.36    2.04
   6   1 -14   17.95    1.83
   5  -1 -14   18.83    1.72
  -5  -1  14   17.71    1.81
  -5   1  14   18.24    1.98
   5   1 -14   18.01    1.58
   4  -1 -14   35.42    1.94
  -4  -1  14   33.96    2.06
   4   1 -14   34.05    1.81
  -4   1  14   36.89    2.24
   3  -1 -14   87.47    3.48
   3   1 -14   92.45    3.65
   3   1 -14   89.85    3.39
  -3   1  14   87.91    2.60
   2  -1 -14    7.96    1.09
   2  -1 -14    7.83    0.99
  -2  -1  14    8.40    0.47
   2  -1 -14    7.26    0.78
   2   1 -14    5.71    0.91
   2   1 -14    7.10    0.88
  -2   1  14    8.05    0.52
   1  -1 -14  121.51    4.42
  -1  -1  14  121.77    3.50
   1  -1 -14  119.79    4.74
  -1  -1  14  121.94    4.25
   1  -1 -14  120.79    4.79
  -1   1  14  124.15    3.51
  -1   1  14  123.93    4.31
   1   1 -14  114.22    4.62
   1   1 -14  122.74    4.32
   0  -1 -14   27.92    2.06
   0  -1 -14   30.96    2.42
   0  -1  14   31.08    1.12
   0  -1  14   29.47    1.30
   0   1  14   29.21    1.33
   0   1 -14   29.51    1.91
   0   1 -14   30.95    1.34
   1  -1  14   30.12    1.36
  -1  -1 -14   29.08    1.27
  -1  -1 -14   29.62    2.13
  -1  -1 -14   28.65    2.28
  -1   1 -14   28.93    2.26
   1   1  14   29.78    1.36
   1   1  14   28.45    1.80
  -1   1 -14   29.39    1.55
  -1   1 -14   31.00    1.20
   2  -1  14   75.15    2.88
  -2  -1 -14   73.34    3.28
  -2  -1 -14   72.96    2.51
  -2   1 -14   75.48    2.92
  -2   1 -14   73.79    2.48
   2   1  14   76.42    2.87
  -3  -1 -14   12.44    0.80
  -3  -1 -14   11.16    1.17
   3  -1  14   11.75    0.94
  -3   1 -14   11.90    0.89
  -3   1 -14   12.16    0.98
  -4  -1 -14   48.99    2.67
  -4   1 -14   50.20    2.42
  -4   1 -14   54.35    2.01
  -5  -1 -14   13.70    1.64
  -5   1 -14   16.48    1.58
  -6  -1 -14   27.57    2.51
  -6   1 -14   32.48    2.32
  -7  -1 -14    4.84    1.76
  -7   1 -14    4.78    1.43
  -7  -2  14   14.99    2.19
   7  -2 -14   14.74    2.00
  -7   2  14   14.00    2.36
   7   2 -14   16.28    1.86
  -6  -2  14   37.38    2.61
   6  -2 -14   38.95    2.57
  -6   2  14   35.05    2.89
   6   2 -14   39.14    2.36
   5  -2 -14    7.73    1.30
  -5  -2  14    7.20    1.28
  -5   2  14    6.17    1.46
   5   2 -14    6.75    1.09
  -4  -2  14  119.73    4.71
   4  -2 -14  122.83    4.68
  -4   2  14  118.47    4.92
   4   2 -14  123.66    4.50
  -4   2  14  122.19    3.43
   3  -2 -14  101.51    3.92
  -3   2  14   98.59    3.01
   3   2 -14  107.12    4.05
   3   2 -14  104.79    3.81
   2  -2 -14   18.08    1.59
   2  -2 -14   17.88    1.22
  -2  -2  14   18.71    0.69
   2  -2 -14   20.83    1.55
  -2   2  14   17.35    0.80
   2   2 -14   19.71    1.24
   2   2 -14   17.65    1.34
   1  -2 -14  232.30    8.41
   1  -2 -14  222.34    8.24
   1  -2 -14  226.74    8.15
  -1  -2  14  239.61    6.43
  -1  -2  14  226.36    7.84
  -1   2  14  232.45    6.44
  -1   2  14  229.02    7.95
   1   2 -14  227.82    8.23
   1   2 -14  229.88    7.90
   0  -2 -14   11.86    0.80
   0  -2  14   12.48    0.75
   0  -2  14   12.71    0.70
   0  -2 -14   18.05    1.80
   0  -2 -14   11.77    1.75
   0   2 -14   13.76    1.37
   0   2 -14   12.29    0.77
   0   2  14   11.86    0.81
  -1  -2 -14   94.14    3.08
  -1  -2 -14   94.13    4.35
   1  -2  14  100.23    2.99
   1  -2  14   97.06    3.61
  -1   2 -14   98.20    3.53
   1   2  14   98.53    3.62
  -1   2 -14   91.48    4.39
   1   2  14  104.20    4.00
  -1   2 -14   98.64    2.96
   2  -2  14   44.59    1.92
  -2  -2 -14   41.76    2.49
  -2  -2 -14   43.67    1.74
   2   2  14   43.50    1.88
  -2   2 -14   43.63    1.85
  -2   2 -14   43.48    1.67
  -3  -2 -14   89.87    3.92
   3  -2  14   90.77    3.45
  -3  -2 -14   90.99    2.66
  -3   2 -14   83.68    3.32
  -3   2 -14   82.74    2.88
  -4  -2 -14   28.93    2.11
  -4   2 -14   31.51    1.65
  -4   2 -14   30.43    1.70
  -5  -2 -14   37.37    2.64
  -5   2 -14   40.90    2.22
  -6  -2 -14   17.12    2.21
  -6   2 -14   20.49    1.97
  -7  -2 -14    0.58    1.58
  -7   2 -14    1.44    1.22
   7  -3 -14   -0.30    1.55
   6  -3 -14   21.55    2.29
  -6   3  14   24.63    2.54
   5  -3 -14    7.51    1.33
  -5   3  14    5.55    1.50
   5   3 -14    7.19    1.10
   4  -3 -14    0.66    0.89
   4   3 -14    0.19    0.65
  -4   3  14    0.23    0.30
   3  -3 -14   10.39    1.16
   3   3 -14   10.59    1.15
   3   3 -14    9.79    1.03
  -3   3  14    9.43    0.65
   2  -3 -14  100.53    4.03
  -2  -3  14   95.40    2.92
   2  -3 -14  107.44    4.39
  -2   3  14  105.15    3.09
   2   3 -14  113.84    4.06
   1  -3 -14   30.33    1.26
   1  -3 -14   23.34    2.41
  -1  -3  14   28.59    1.06
   1  -3 -14   26.35    1.89
   1   3 -14   28.53    1.27
  -1   3  14   29.19    1.38
  -1   3  14   27.99    1.07
   1   3 -14   27.33    1.65
   0  -3 -14   55.94    3.17
   0  -3  14   59.82    1.94
   0  -3  14   63.00    2.38
   0  -3 -14   57.96    2.02
   0  -3 -14   59.17    3.31
   0   3 -14   58.99    2.78
   0   3  14   57.21    2.39
   0   3 -14   60.83    2.32
   1  -3  14  179.71    4.97
  -1  -3 -14  156.37    6.59
  -1  -3 -14  159.74    5.06
   1  -3  14  174.44    6.04
  -1   3 -14  172.87    6.78
  -1   3 -14  176.24    4.92
   1   3  14  168.03    6.42
   1   3  14  168.09    6.06
   2  -3  14    6.93    0.81
  -2  -3 -14    6.88    0.74
  -2  -3 -14    7.41    1.35
   2   3  14    8.42    0.83
  -2   3 -14    6.84    0.73
  -2   3 -14    7.83    0.68
   3  -3  14   28.22    1.52
  -3  -3 -14   30.93    2.15
  -3   3 -14   25.45    1.38
  -3   3 -14   23.80    1.24
  -4  -3 -14   30.67    2.40
  -4   3 -14   32.19    1.82
  -4   3 -14   28.40    1.66
  -5  -3 -14   24.48    2.43
  -5   3 -14   26.46    1.29
  -5   3 -14   23.34    1.68
  -6  -3 -14   -0.05    1.34
  -6   3 -14    1.27    1.01
  -7  -3 -14   11.50    2.44
  -7   3 -14   13.33    1.73
   7  -4 -14   14.99    2.21
   6  -4 -14   38.06    2.80
   5  -4 -14   18.72    2.04
   4  -4 -14    0.55    1.06
  -4   4  14    0.96    0.41
   3  -4 -14    2.22    1.08
   3  -4 -14    2.60    1.01
  -3   4  14    2.46    0.45
   2  -4 -14   25.58    1.94
   2  -4 -14   21.93    1.72
   2   4 -14   25.42    1.52
  -2   4  14   25.22    1.05
   1  -4 -14   91.57    3.00
   1  -4 -14   93.41    4.29
   1  -4 -14   96.78    4.20
  -1  -4  14   97.63    2.86
  -1   4  14   97.62    2.89
   1   4 -14   94.67    3.83
  -1   4  14   95.26    3.67
   0  -4  14   68.07    2.22
   0  -4 -14   66.22    3.76
   0  -4 -14   69.44    2.32
   0   4 -14   72.62    2.68
   0   4 -14   65.48    3.08
   0   4  14   66.70    2.78
   1  -4  14   73.29    2.37
  -1  -4 -14   63.03    3.42
  -1  -4 -14   66.10    2.46
  -1   4 -14   74.40    2.30
  -1   4 -14   72.86    3.54
   1   4  14   71.17    2.87
  -2  -4 -14    4.16    0.62
  -2  -4 -14    3.12    1.06
  -2   4 -14    3.12    0.51
  -2   4 -14    2.93    0.51
   2   4  14    3.75    0.65
   3  -4  14    0.19    0.55
  -3  -4 -14    0.28    0.82
  -3   4 -14    0.86    0.70
  -3   4 -14    0.01    0.49
  -4  -4 -14    4.61    1.39
  -4   4 -14    3.89    0.95
  -4   4 -14    4.18    0.78
  -5  -4 -14    0.58    1.18
  -5   4 -14    1.11    0.84
  -5   4 -14    2.77    0.75
  -6  -4 -14   -0.21    1.37
  -6   4 -14    0.84    0.98
  -7  -4 -14   11.59    2.51
  -7   4 -14   11.83    1.64
   7  -5 -14    0.64    1.76
   6  -5 -14    0.40    1.47
   5  -5 -14    3.42    1.42
  -5   5  14    2.51    0.51
   4  -5 -14   61.19    3.11
  -4   5  14   60.11    2.11
   3  -5 -14   71.15    3.62
   3  -5 -14   63.01    3.09
  -3   5  14   67.69    2.25
   2  -5 -14   51.31    2.59
  -2   5  14   48.93    1.75
   1  -5 -14   39.17    1.59
  -1  -5  14   40.07    1.44
   1  -5 -14   36.95    2.87
   1   5 -14   40.78    2.08
  -1   5  14   41.88    1.49
   0  -5 -14   33.88    1.44
   0  -5 -14   32.11    2.64
   0  -5  14   31.17    1.31
   0   5 -14   31.04    1.99
   0   5  14   32.02    1.71
  -1  -5 -14   32.38    1.53
  -1  -5 -14   26.79    2.14
   1  -5  14   34.67    1.40
   1   5  14   32.86    1.70
  -1   5 -14   31.86    2.23
   2  -5  14   31.63    1.43
  -2  -5 -14   25.56    2.01
  -2  -5 -14   25.85    1.30
  -2   5 -14   30.23    1.29
  -3  -5 -14  107.33    4.73
  -3   5 -14   97.95    3.59
  -4  -5 -14   15.01    2.00
  -4   5 -14   12.50    1.22
  -4   5 -14   11.52    1.34
  -5  -5 -14   38.62    3.13
  -5   5 -14   41.07    2.30
  -5   5 -14   46.86    2.37
  -6  -5 -14   37.62    3.23
  -6   5 -14   32.56    2.29
  -7  -5 -14   -1.37    1.53
  -7   5 -14    0.68    1.20
   7  -6 -14   -3.22    1.70
   6  -6 -14    3.27    1.66
   5  -6 -14    9.88    1.74
  -5   6  14   10.00    0.88
  -4   6  14   13.72    1.03
   3  -6 -14    1.16    1.11
  -3   6  14    1.31    0.49
   2  -6 -14   39.80    2.56
  -2   6  14   40.97    1.57
   1  -6 -14   25.54    1.32
  -1  -6  14   26.16    1.11
   0  -6 -14    6.45    1.58
   0  -6  14    6.27    0.68
   0  -6 -14    7.05    0.76
   0   6 -14    7.21    1.19
   0   6  14    7.73    0.97
  -1  -6 -14   19.88    1.28
  -2  -6 -14   10.15    0.79
   2  -6  14   11.94    1.06
  -2  -6 -14   11.85    1.44
  -2   6 -14   12.69    0.91
  -4  -6 -14   -0.18    1.04
  -4   6 -14    0.09    0.86
  -5  -6 -14   13.64    2.10
  -5   6 -14   13.87    1.59
  -6  -6 -14    9.81    2.04
   7  -7 -14    3.79    2.29
   6  -7 -14    2.52    1.77
   5  -7 -14    7.07    1.70
  -5   7  14    5.43    0.81
   4  -7 -14   26.34    2.42
  -4   7  14   27.37    1.44
   3  -7 -14    0.78    1.27
  -3   7  14    1.23    0.57
   2  -7 -14   72.98    2.69
   2  -7 -14   73.37    3.63
  -2   7  14   71.62    2.46
  -1  -7  14    8.39    0.75
   1  -7 -14    7.43    1.78
   1  -7 -14    8.85    0.93
   0  -7 -14   21.04    1.27
   0  -7  14   21.26    1.16
   0  -7 -14   20.22    2.32
   0   7  14   20.59    1.54
  -1  -7 -14   59.90    3.16
  -1  -7 -14   63.97    2.49
   1  -7  14   66.40    2.38
  -2  -7 -14    2.81    0.41
   2  -7  14    2.98    0.76
  -2  -7 -14    3.42    0.97
  -2   7 -14    3.06    0.79
  -3  -7 -14   64.10    3.50
  -3   7 -14   64.60    2.73
  -4  -7 -14    2.22    1.21
  -4   7 -14    2.72    1.06
  -5   7 -14   30.22    2.28
  -6   7 -14    2.03    0.55
   6  -8 -14    1.17    1.79
   5  -8 -14    1.11    1.59
  -5   8  14    0.34    0.67
   4  -8 -14    6.24    1.66
  -4   8  14    7.55    0.88
   3  -8 -14   11.30    1.71
  -3   8  14   10.62    0.94
   2  -8 -14    0.38    0.77
   2  -8 -14    0.83    1.41
  -2   8  14    0.90    0.57
   1  -8 -14   22.18    2.32
  -1  -8  14   18.69    1.10
   1  -8 -14   20.97    1.37
   0  -8  14    7.99    0.81
   0  -8 -14    9.01    0.97
   0  -8 -14    8.06    1.59
  -1  -8 -14    1.81    0.72
   1  -8  14    0.92    0.67
   2  -8  14    0.61    0.73
  -3   8 -14   17.40    1.54
  -4   8 -14    3.24    1.09
  -5   8 -14    0.64    1.05
   6  -9 -14   -0.39    1.87
  -6   9  14   -0.41    0.60
   5  -9 -14    7.91    1.96
  -5   9  14    5.77    0.96
   4  -9 -14   17.39    2.17
  -4   9  14   19.05    1.35
  -3   9  14    1.60    0.69
   2  -9 -14   56.68    2.47
   1  -9 -14    1.40    0.78
  -1  -9  14    1.09    0.54
   0  -9 -14    4.47    0.85
   0  -9  14    3.88    0.74
  -1  -9 -14   11.84    1.15
   1  -9  14   12.29    1.13
   2  -9  14    1.84    0.84
  -3   9 -14   71.76    3.02
  -4   9 -14   -0.41    0.94
  -5   9 -14   12.78    1.69
  -5  10  14    5.42    1.00
  -4  10  14   17.79    1.43
  -3  10  14   16.32    1.36
   2 -10 -14    2.49    1.04
   1 -10 -14   44.90    2.17
  -1 -10  14   47.55    1.68
   0 -10 -14    4.81    0.91
   0 -10  14    4.79    0.86
  -1 -10 -14   42.40    1.95
   1 -10  14   41.80    2.06
   2 -10  14    0.84    0.90
   3 -10  14    2.55    1.07
  -4  10 -14    4.08    1.19
  -4  11  14   13.86    1.27
  -3  11  14   22.98    1.62
   2 -11 -14    2.54    1.10
   1 -11 -14    2.76    0.95
   0 -11  14    1.17    0.75
   0 -11 -14    0.74    0.79
  -1 -11 -14    1.24    0.60
   1 -11  14    0.09    0.87
   2 -11  14    1.53    1.01
   3 -11  14    6.31    1.29
  -4  11 -14   12.49    1.54
  -4  12  14   11.21    1.21
   3 -12 -14   11.49    1.57
   2 -12 -14    2.08    1.16
   1 -12 -14   14.59    1.43
   0 -12  14    6.06    0.90
   0 -12 -14    5.73    0.97
   1 -12  14   45.96    2.29
   2 -12  14    6.14    1.28
   3 -12  14   -0.55    1.11
   2 -13 -14   -0.42    1.06
   1 -13 -14   11.95    1.37
   0 -13 -14    0.96    0.71
   1 -13  14    0.91    0.94
   2 -13  14   20.22    1.75
   7   0 -15   -2.29    1.31
  -7   0  15   -2.85    1.60
   6   0 -15    5.28    1.31
  -6   0  15    1.98    1.48
   5   0 -15    0.91    0.95
  -5   0  15   -0.38    1.14
  -4   0  15   -0.02    0.95
   4   0 -15    0.43    0.78
   3   0 -15    0.33    0.74
  -3   0  15    0.44    0.19
   3   0 -15    0.39    0.71
  -2   0  15    0.12    0.25
   2   0 -15   -0.34    0.72
   2   0 -15    0.54    0.76
   0   0 -15   -0.56    1.01
   0   0 -15    0.23    0.84
   0   0  15    0.14    0.28
   0   0  15    0.09    0.32
  -1   0 -15   19.80    2.09
   1   0  15   19.57    1.08
   2   0  15    0.14    0.39
  -2   0 -15   -0.21    0.63
  -2   0 -15   -0.21    0.41
  -3   0 -15   -0.20    0.52
  -3   0 -15    0.49    0.44
  -4   0 -15    0.06    0.71
  -4   0 -15    0.38    0.36
  -5   0 -15    0.95    0.94
  -6   0 -15    2.68    1.19
  -7   0 -15   -0.40    1.30
  -7  -1  15    3.58    1.79
   7  -1 -15    4.74    1.63
   7   1 -15    4.32    1.49
   6  -1 -15    3.05    1.27
  -6  -1  15    1.61    1.38
   6   1 -15    1.99    1.16
  -6   1  15    2.59    1.53
  -5  -1  15   16.83    1.90
   5  -1 -15   17.83    1.74
  -5   1  15   15.53    1.82
   5   1 -15   16.69    1.60
  -4  -1  15   39.04    2.32
   4  -1 -15   42.79    2.20
   4   1 -15   43.28    2.07
   3  -1 -15   35.14    2.12
   3  -1 -15   36.42    1.89
   3   1 -15   35.78    1.78
  -3   1  15   35.02    1.19
   3   1 -15   35.07    1.99
   2  -1 -15    1.46    0.84
   2  -1 -15    2.38    0.91
   2   1 -15    0.85    0.70
   2   1 -15    1.22    0.77
   1  -1 -15   27.27    1.36
   1  -1 -15   25.99    1.97
  -1  -1  15   26.04    1.14
  -1  -1  15   27.05    1.01
   1  -1 -15   26.11    1.78
  -1   1  15   26.63    1.21
   1   1 -15   27.85    1.85
  -1   1  15   26.29    1.02
   1   1 -15   27.82    1.69
   1   1 -15   26.08    1.23
   0  -1  15    1.84    0.40
   0  -1 -15    2.04    0.45
   0  -1 -15    1.59    1.02
   0  -1 -15    1.47    1.46
   0  -1  15    2.20    0.39
   0   1  15    2.01    0.43
   0   1 -15    1.56    0.88
   0   1 -15    0.54    0.90
   1  -1  15  174.09    6.16
  -1  -1 -15  186.16    6.75
  -1  -1 -15  169.03    5.14
  -1   1 -15  165.56    6.18
   1   1  15  172.61    6.16
  -1   1 -15  174.15    5.06
  -1   1 -15  172.88    7.07
   1   1  15  184.86    6.61
  -2  -1 -15   41.97    1.70
  -2  -1 -15   42.05    2.30
   2  -1  15   41.14    1.82
  -2   1 -15   39.04    1.63
  -2   1 -15   42.06    1.91
   2   1  15   40.89    1.80
  -3  -1 -15   91.88    2.90
  -3  -1 -15   87.98    3.87
  -3   1 -15   88.15    2.97
  -3   1 -15   89.12    3.51
  -4  -1 -15    2.16    0.91
  -4   1 -15    2.09    0.60
  -4   1 -15    3.30    0.81
  -5  -1 -15   16.78    1.95
  -5   1 -15   16.89    1.65
  -6  -1 -15   22.95    2.44
  -6   1 -15   29.28    2.24
  -7  -1 -15   -0.11    1.47
  -7   1 -15    1.81    1.34
   7  -2 -15   -2.26    1.38
   7   2 -15   -1.02    1.32
  -6  -2  15    1.88    1.40
   6  -2 -15    5.05    1.39
   6   2 -15    3.50    1.21
  -6   2  15    1.86    1.57
  -5  -2  15    6.34    1.35
   5  -2 -15    7.23    1.28
   5   2 -15    6.02    1.06
   4  -2 -15   11.89    1.33
  -4  -2  15   10.63    1.34
  -4   2  15   11.10    0.54
   4   2 -15   11.53    1.19
   3  -2 -15    5.61    1.16
   3  -2 -15    7.43    0.98
   3   2 -15    5.71    0.83
  -3   2  15    5.20    0.51
   3   2 -15    7.11    1.03
   2  -2 -15    2.33    0.99
  -2  -2  15    1.49    0.26
   2  -2 -15    0.96    0.89
   2   2 -15    1.66    0.74
   2   2 -15    1.11    0.68
  -2   2  15    1.61    0.33
  -1  -2  15  211.61    5.81
   1  -2 -15  206.04    7.65
   1  -2 -15  199.06    7.58
  -1   2  15  202.37    7.17
   1   2 -15  207.54    7.13
   1   2 -15  206.70    7.49
   0  -2  15    0.35    0.33
   0  -2 -15    0.14    1.05
   0  -2 -15   -0.06    1.50
   0  -2  15    0.51    0.34
   0  -2 -15    1.09    0.45
   0   2 -15    0.30    0.80
   0   2 -15    0.19    0.33
   0   2  15    0.35    0.38
   1  -2  15   15.55    0.99
  -1  -2 -15   16.02    1.04
  -1  -2 -15   14.29    1.83
   1  -2  15   13.69    0.85
  -1   2 -15   14.23    1.79
  -1   2 -15   16.36    0.87
  -1   2 -15   16.27    1.01
   1   2  15   16.57    1.00
   1   2  15   21.69    1.62
  -2  -2 -15   21.95    1.24
   2  -2  15   22.33    1.25
  -2  -2 -15   21.92    1.78
   2   2  15   21.70    1.21
  -2   2 -15   21.54    1.12
  -2   2 -15   20.84    1.17
  -3  -2 -15    3.62    1.03
  -3  -2 -15    3.98    0.48
  -3   2 -15    3.74    0.66
  -3   2 -15    3.42    0.59
  -4  -2 -15    3.79    1.16
  -4   2 -15    3.81    0.82
  -4   2 -15    3.37    0.76
  -5  -2 -15    0.86    1.19
  -5   2 -15    3.36    0.92
  -6  -2 -15   20.27    2.57
  -6   2 -15   19.88    1.93
  -7  -2 -15   -1.30    1.58
  -7   2 -15    1.99    1.23
   7  -3 -15    3.73    1.74
   6  -3 -15   11.50    1.77
   5  -3 -15   10.95    1.42
   4  -3 -15    0.37    0.97
  -4   3  15    0.08    0.32
   4   3 -15    0.38    0.74
   3  -3 -15   16.77    1.80
   3  -3 -15   16.63    1.46
   3   3 -15   16.45    1.27
  -3   3  15   20.17    0.88
   2  -3 -15   69.14    2.99
   2  -3 -15   68.33    3.23
  -2  -3  15   66.97    2.00
   2   3 -15   67.51    2.90
  -2   3  15   66.97    2.13
  -1  -3  15   22.34    0.97
   1  -3 -15   24.19    1.87
   1  -3 -15   25.45    1.14
   1  -3 -15   20.46    2.17
  -1   3  15   23.99    1.24
   1   3 -15   26.33    1.62
  -1   3  15   25.06    0.99
   0  -3  15   57.03    1.90
   0  -3 -15   57.91    1.99
   0  -3 -15   53.50    3.24
   0  -3 -15   57.95    3.25
   0   3 -15   59.67    2.80
   0   3  15   57.03    2.35
  -1  -3 -15  129.44    4.09
  -1  -3 -15  121.30    5.46
   1  -3  15  132.98    4.81
   1  -3  15  136.02    3.97
  -1   3 -15  138.12    4.59
  -1   3 -15  135.02    3.92
   1   3  15  134.95    4.85
  -1   3 -15  123.93    5.54
   2  -3  15    9.00    0.92
  -3  -3 -15   30.30    2.29
  -3  -3 -15   31.23    1.02
   3  -3  15   28.99    1.63
  -3   3 -15   28.49    1.39
  -3   3 -15   29.08    1.50
  -4  -3 -15    2.36    1.10
  -4   3 -15    2.96    0.88
  -4   3 -15    1.91    0.73
  -5  -3 -15   21.83    2.52
  -5   3 -15   21.35    1.66
  -5   3 -15   24.86    1.30
  -6  -3 -15   11.96    2.17
  -6   3 -15   13.11    1.52
  -7  -3 -15    1.50    1.84
  -7   3 -15    3.48    1.28
   7  -4 -15   -1.10    1.64
   6  -4 -15   93.50    4.47
   5  -4 -15    7.69    1.54
   4  -4 -15    2.83    1.21
  -4   4  15    2.44    0.47
   3  -4 -15  186.23    7.74
   3  -4 -15  190.66    6.88
  -3   4  15  190.78    5.46
   2  -4 -15    2.18    1.01
   2  -4 -15    0.67    1.11
  -2   4  15    0.70    0.38
   2   4 -15    1.51    0.70
  -1  -4  15   45.10    1.56
   1  -4 -15   41.60    3.04
   1  -4 -15   50.29    2.69
   1  -4 -15   46.01    1.74
   1   4 -15   45.47    2.28
  -1   4  15   48.11    1.61
   0  -4  15   31.36    1.27
   0  -4 -15   29.80    2.79
   0  -4 -15   30.44    1.35
   0   4 -15   30.14    1.94
   0   4  15   30.51    1.58
  -1  -4 -15  235.06    7.08
   1  -4  15  258.09    6.98
  -1  -4 -15  229.09    8.95
  -1   4 -15  231.50    9.18
   1   4  15  239.33    8.53
  -1   4 -15  254.76    6.92
  -2  -4 -15   -0.43    0.90
  -2  -4 -15    0.06    0.49
  -2   4 -15    0.15    0.40
  -2   4 -15   -0.09    0.38
  -3  -4 -15   -1.85    0.82
  -3   4 -15   -0.44    0.47
  -4  -4 -15   92.70    4.63
  -4   4 -15   86.18    3.54
  -4   4 -15   92.42    3.61
  -5  -4 -15    0.27    1.29
  -5   4 -15    1.73    0.73
  -5   4 -15    1.06    0.84
  -6  -4 -15    3.00    1.69
  -6   4 -15    2.96    1.09
  -7  -4 -15    1.19    1.83
  -7   4 -15    2.44    1.26
   7  -5 -15    2.66    1.88
   6  -5 -15    1.41    1.55
   5  -5 -15   32.43    2.36
  -5   5  15   28.32    1.28
   4  -5 -15   35.94    2.49
  -4   5  15   34.59    1.46
   3  -5 -15    0.63    0.96
  -3   5  15    1.00    0.45
   2  -5 -15    2.11    1.12
  -2   5  15    2.83    0.48
   1  -5 -15    2.57    0.56
   1  -5 -15    1.25    1.39
  -1  -5  15    2.65    0.41
   1   5 -15    2.11    0.77
  -1   5  15    3.77    0.49
   0  -5 -15   -0.24    1.43
   0  -5  15    0.29    0.40
   0  -5 -15    0.73    0.50
   0   5 -15    0.35    0.80
   0   5  15   -0.26    0.48
   1  -5  15    0.59    0.46
  -1  -5 -15    0.92    0.56
  -1  -5 -15    0.54    0.91
   1   5  15    0.27    0.54
   2  -5  15   21.76    1.25
  -2  -5 -15   18.99    1.80
  -2  -5 -15   22.51    1.21
  -2   5 -15   21.16    1.10
  -3  -5 -15   44.61    2.85
  -3   5 -15   47.12    2.18
  -4  -5 -15   -0.31    1.06
  -4   5 -15   -0.86    0.66
  -4   5 -15    0.08    0.79
  -5  -5 -15    9.51    1.89
  -5   5 -15    8.86    1.24
  -5   5 -15    6.19    1.10
  -6  -5 -15    2.83    1.65
  -6   5 -15    5.12    1.20
   7  -6 -15   -1.88    1.80
   6  -6 -15    4.45    1.79
   5  -6 -15   24.21    2.49
  -5   6  15   21.99    1.22
   4  -6 -15   48.36    2.94
  -4   6  15   48.81    1.90
   3  -6 -15   31.09    2.35
  -3   6  15   33.28    1.42
   2  -6 -15    0.99    1.26
   1  -6 -15  298.00   10.94
  -1  -6  15  294.06    8.37
   1  -6 -15  299.15    8.54
   0  -6 -15   13.47    1.05
   0  -6 -15   13.61    1.94
   0  -6  15   12.38    0.92
   0   6  15   13.22    1.21
   0   6 -15   14.38    1.56
  -1  -6 -15   30.63    2.22
   1  -6  15   34.21    1.51
  -1  -6 -15   33.22    1.63
   2  -6  15  124.62    3.76
  -2  -6 -15  104.02    3.49
  -2  -6 -15  104.15    4.79
  -2   6 -15  118.52    3.56
  -3  -6 -15   13.74    1.74
  -3   6 -15   14.88    1.33
  -4  -6 -15    5.52    1.51
  -4   6 -15    7.16    1.24
  -5  -6 -15   -0.11    1.18
  -5   6 -15    0.01    0.89
  -6  -6 -15   40.04    3.45
   6  -7 -15    1.37    1.79
   5  -7 -15    0.14    1.55
  -5   7  15    1.41    0.65
   4  -7 -15    2.14    1.43
  -4   7  15    3.28    0.71
   3  -7 -15    0.42    1.31
  -3   7  15    1.73    0.57
   2  -7 -15   37.87    1.80
   2  -7 -15   33.39    2.60
  -2   7  15   34.80    1.50
   1  -7 -15    2.73    1.60
   1  -7 -15    5.21    0.78
  -1  -7  15    8.76    0.75
   0  -7  15   20.27    1.17
   0  -7 -15   20.31    2.39
   0  -7 -15   21.82    1.31
   0   7  15   19.85    1.65
  -1  -7 -15    5.78    1.17
  -1  -7 -15    4.06    0.78
   1  -7  15    3.79    0.71
  -2  -7 -15    1.56    0.86
  -2  -7 -15    0.84    0.37
   2  -7  15    0.65    0.69
  -3  -7 -15   12.68    1.75
  -3   7 -15   16.41    1.44
  -4  -7 -15   -0.15    1.03
  -4   7 -15    0.18    0.93
  -5   7 -15   15.05    1.79
  -6   7 -15   10.23    0.87
   6  -8 -15   55.21    3.75
   5  -8 -15   -0.50    1.59
  -5   8  15    0.49    0.68
   4  -8 -15   -0.81    1.45
  -4   8  15   -0.38    0.62
   3  -8 -15  145.44    5.98
  -3   8  15  148.28    4.58
   2  -8 -15   -0.66    1.40
   2  -8 -15   -0.89    0.77
  -2   8  15    0.36    0.56
  -1  -8  15   24.89    1.25
   1  -8 -15   25.63    1.52
   1  -8 -15   24.74    2.63
   0  -8 -15   13.68    1.87
   0  -8  15   10.22    0.98
   0  -8 -15    9.80    1.01
   1  -8  15  104.34    3.52
  -1  -8 -15   95.10    4.80
  -1  -8 -15  109.79    3.66
   2  -8  15    6.39    1.00
  -3   8 -15    1.07    0.91
  -4   8 -15   99.40    3.99
  -5   8 -15    7.71    1.48
   6  -9 -15    2.90    1.91
   5  -9 -15    1.42    1.73
  -5   9  15    0.74    0.75
   4  -9 -15   15.92    2.14
  -4   9  15   13.32    1.28
   3  -9 -15   -0.44    1.55
  -3   9  15    1.19    0.68
   2  -9 -15   48.03    2.30
   1  -9 -15    1.11    0.79
  -1  -9  15    1.55    0.56
   0  -9 -15   36.72    1.90
   0  -9  15   41.58    1.80
   1  -9  15   47.22    2.11
  -1  -9 -15   46.18    2.14
   2  -9  15   20.95    1.65
  -3   9 -15    2.14    0.97
  -4   9 -15   -0.24    0.97
  -5   9 -15   37.54    2.58
  -5  10  15    6.43    1.05
  -4  10  15   10.69    1.08
  -3  10  15    0.16    0.72
   2 -10 -15    8.82    1.23
  -1 -10  15  112.44    3.36
   1 -10 -15  108.51    3.83
   0 -10  15   18.06    1.35
   0 -10 -15   16.80    1.45
   1 -10  15    4.14    0.93
  -1 -10 -15    2.25    0.76
   2 -10  15   23.67    1.77
   3 -10  15    3.11    1.10
  -4  10 -15   -0.12    1.01
  -4  11  15   15.13    1.45
  -3  11  15    0.80    0.80
   2 -11 -15    6.80    1.22
   1 -11 -15    9.79    1.22
   0 -11 -15   15.44    1.46
   0 -11  15   14.89    1.32
  -1 -11 -15    3.96    0.71
   1 -11  15    4.17    1.01
   2 -11  15   10.97    1.39
   3 -11  15   48.68    2.65
  -4  11 -15    5.66    1.33
   3 -12 -15    9.33    1.52
   2 -12 -15    2.96    1.17
   1 -12 -15    7.66    1.19
   0 -12  15    6.22    0.93
   0 -12 -15    4.50    0.94
   1 -12  15    8.43    1.22
   2 -12  15    2.95    1.12
   3 -12  15    6.67    1.40
   2 -13 -15   12.81    1.51
   1 -13 -15    2.36    1.03
   0 -13 -15   12.60    1.11
   1 -13  15   31.64    1.97
   2 -13  15    2.54    1.16
   7   0 -16   13.39    1.89
  -6   0  16    0.35    1.48
   6   0 -16    1.07    1.20
   5   0 -16    7.18    1.18
   4   0 -16   44.26    2.18
   3   0 -16  206.57    7.28
   3   0 -16  204.93    7.71
  -3   0  16  211.73    5.77
   2   0 -16   84.46    3.59
  -2   0  16   82.83    2.52
   2   0 -16   86.69    3.41
   1   0 -16  226.35    8.08
   1   0 -16  222.64    8.24
   1   0 -16  226.61    7.91
  -1   0  16  230.20    6.38
   0   0  16  368.72   12.52
   0   0 -16  353.12   13.15
   0   0  16  381.00   10.19
   0   0 -16  364.05   12.70
  -1   0 -16   27.68    1.92
  -1   0 -16   30.24    1.31
   1   0  16   29.72    1.41
  -2   0 -16   54.22    2.00
  -2   0 -16   52.21    2.51
   2   0  16   53.10    2.21
  -3   0 -16   19.39    1.15
  -3   0 -16   16.84    1.43
  -4   0 -16  139.24    4.03
  -4   0 -16  123.04    5.16
  -5   0 -16    9.69    1.42
  -6   0 -16   42.10    2.90
  -7   0 -16   42.22    3.38
   7  -1 -16    3.10    1.56
   7   1 -16    4.78    1.56
  -6  -1  16   10.70    1.82
   6  -1 -16   12.13    1.67
   6   1 -16   12.09    1.57
  -5  -1  16   22.77    2.20
   5  -1 -16   24.42    1.98
   5   1 -16   25.73    1.87
   4  -1 -16   14.92    1.52
   4   1 -16   11.29    1.32
   3  -1 -16   55.21    2.84
   3  -1 -16   57.79    2.60
   3   1 -16   56.26    2.48
  -3   1  16   59.75    1.80
   2  -1 -16    1.32    0.84
   2  -1 -16    1.58    0.93
   2   1 -16    1.67    0.84
   2   1 -16    0.91    0.73
   1  -1 -16  129.37    4.69
   1  -1 -16  124.58    5.05
   1  -1 -16  120.16    5.06
  -1  -1  16  126.03    3.70
   1   1 -16  128.95    4.82
   1   1 -16  126.70    4.57
   1   1 -16  128.64    4.95
  -1   1  16  131.15    3.71
   0  -1 -16    1.29    0.44
   0  -1 -16   -1.29    1.35
   0  -1  16    1.13    0.38
   0  -1 -16    0.61    1.00
   0  -1  16    0.68    0.33
   0   1  16    1.71    0.45
   0   1 -16    0.17    0.94
   0   1 -16    0.43    0.92
   0   1  16    0.89    0.32
  -1  -1 -16   62.17    2.25
  -1  -1 -16   64.35    3.30
   1  -1  16   65.57    2.55
   1  -1  16   67.90    2.12
  -1   1 -16   64.90    2.15
  -1   1 -16   61.25    2.71
  -1   1 -16   64.74    3.58
   1   1  16   64.52    2.55
   2  -1  16   60.34    2.41
  -2  -1 -16   58.79    2.18
  -2  -1 -16   58.75    2.90
  -2   1 -16   58.68    2.49
  -2   1 -16   53.90    2.08
   2   1  16   58.45    2.38
  -3  -1 -16    0.90    0.72
  -3  -1 -16    0.15    0.44
  -3   1 -16    0.37    0.49
  -3   1 -16    0.54    0.58
  -4  -1 -16   43.57    2.66
  -4   1 -16   48.93    2.37
  -4   1 -16   44.82    2.00
  -5  -1 -16    3.61    1.26
  -5   1 -16    4.84    1.07
  -6  -1 -16    7.63    1.70
  -6   1 -16   10.07    1.53
  -7  -1 -16    5.38    1.93
  -7   1 -16    5.75    1.54
   7  -2 -16    5.53    1.78
   7   2 -16    5.30    1.63
   6  -2 -16   41.74    2.80
  -6  -2  16   35.04    2.79
   6   2 -16   44.17    2.54
   5  -2 -16   88.24    3.94
   5   2 -16   88.98    3.75
   4  -2 -16   11.23    1.37
  -4   2  16    9.38    0.54
   4   2 -16   10.94    1.15
   3  -2 -16   88.64    4.11
   3  -2 -16   89.83    3.70
  -3   2  16   91.92    2.74
   3   2 -16   93.10    3.51
   2  -2 -16   22.15    1.80
  -2  -2  16   23.26    0.88
   2  -2 -16   22.02    1.82
   2   2 -16   24.14    1.63
   2   2 -16   22.97    1.56
  -2   2  16   23.56    0.96
  -1  -2  16   97.70    2.85
   1  -2 -16   90.11    4.00
   1  -2 -16   88.95    4.19
   1   2 -16   94.66    3.87
   1   2 -16   99.26    3.74
  -1   2  16   94.41    2.83
   0  -2 -16    3.74    1.30
   0  -2 -16    3.87    0.56
   0  -2  16    3.01    0.44
   0  -2 -16    2.17    1.62
   0   2 -16    3.07    0.75
   0   2  16    3.21    0.55
   0   2  16    3.36    0.42
   0   2 -16    3.02    0.98
  -1  -2 -16  123.74    4.04
   1  -2  16  135.49    4.80
  -1  -2 -16  134.50    5.52
   1  -2  16  135.95    3.94
  -1   2 -16  125.49    5.68
   1   2  16  129.53    4.79
  -1   2 -16  129.42    3.92
  -1   2 -16  136.96    4.71
  -2  -2 -16  184.14    5.59
  -2  -2 -16  187.55    7.22
   2  -2  16  188.62    6.61
  -2   2 -16  180.67    5.45
   2   2  16  184.30    6.57
  -2   2 -16  180.37    6.40
  -3  -2 -16   40.01    1.55
  -3  -2 -16   40.28    2.49
  -3   2 -16   40.30    1.91
  -3   2 -16   40.46    1.73
  -4  -2 -16   67.55    3.60
  -4   2 -16   63.24    2.85
  -4   2 -16   66.60    2.76
  -5  -2 -16   16.27    2.13
  -5   2 -16   17.44    1.59
  -6  -2 -16    5.20    1.73
  -6   2 -16    8.27    1.35
  -7  -2 -16   -2.47    1.44
  -7   2 -16    1.27    1.23
   7  -3 -16   18.66    2.33
   6  -3 -16    7.37    1.63
   5  -3 -16    2.25    1.14
   4  -3 -16    5.01    1.19
  -4   3  16    5.80    0.53
   3  -3 -16   55.83    2.73
  -3   3  16   57.39    1.86
   2  -3 -16    7.55    1.26
   2  -3 -16    8.91    1.33
  -2  -3  16    7.71    0.48
   2   3 -16    7.45    1.00
  -2   3  16    7.40    0.62
   1  -3 -16  128.11    3.87
   1  -3 -16  119.52    5.24
   1  -3 -16  132.58    5.26
  -1  -3  16  130.80    3.76
   1   3 -16  126.55    4.96
  -1   3  16  128.35    3.76
   0  -3 -16  106.18    3.32
   0  -3  16  107.17    3.25
   0  -3 -16  105.07    4.82
   0   3  16  103.57    4.00
   0   3  16  109.74    3.22
   0   3 -16  110.54    4.48
   1  -3  16    1.33    0.43
  -1  -3 -16    0.70    1.15
  -1  -3 -16    2.65    0.59
   1   3  16    2.51    0.56
  -1   3 -16    2.84    0.49
  -1   3 -16    1.39    1.16
  -1   3 -16    1.90    0.43
  -2  -3 -16   12.31    1.64
   2  -3  16   15.35    1.13
  -2  -3 -16   13.69    1.11
  -2   3 -16   14.75    0.97
  -2   3 -16   14.70    0.97
   2   3  16   14.43    1.07
  -3  -3 -16   23.52    2.11
  -3  -3 -16   21.74    0.91
  -3   3 -16   19.39    1.20
  -3   3 -16   21.21    1.30
  -4  -3 -16    6.88    1.60
  -4   3 -16    7.24    0.96
  -4   3 -16    7.05    1.15
  -5  -3 -16    4.38    1.54
  -5   3 -16    5.61    0.75
  -5   3 -16    4.56    1.00
  -6  -3 -16   29.06    3.12
  -6   3 -16   30.89    2.22
  -7  -3 -16   10.39    2.50
  -7   3 -16    8.38    1.54
   7  -4 -16    6.82    1.96
   6  -4 -16    4.65    1.61
   5  -4 -16    0.99    1.34
   4  -4 -16    4.68    1.29
  -4   4  16    5.36    0.58
   3  -4 -16   83.61    3.66
  -3   4  16   83.88    2.65
  -2  -4  16   19.60    0.77
   2  -4 -16   21.74    1.90
   2  -4 -16   20.53    1.97
  -2   4  16   21.35    0.97
  -1  -4  16   90.58    2.76
   1  -4 -16   92.44    2.92
   1  -4 -16   86.36    4.31
  -1   4  16   93.16    2.80
   1   4 -16   88.42    3.74
   0  -4 -16   21.85    2.55
   0  -4  16   22.82    1.09
   0  -4 -16   22.90    1.19
   0   4  16   23.16    1.34
   0   4 -16   22.56    1.73
  -1  -4 -16   15.00    1.11
  -1  -4 -16   14.28    1.69
   1  -4  16   14.93    0.96
   1   4  16   16.36    1.13
  -1   4 -16   16.73    0.94
  -2  -4 -16   17.58    1.21
  -2  -4 -16   17.20    1.83
  -2   4 -16   21.44    1.07
  -2   4 -16   19.70    1.06
  -3  -4 -16   28.60    2.33
  -3   4 -16   29.36    1.54
  -3   4 -16   27.96    1.38
  -4  -4 -16   45.46    3.21
  -4   4 -16   43.20    2.14
  -4   4 -16   46.40    2.45
  -5  -4 -16   20.36    2.51
  -5   4 -16   20.13    1.70
  -5   4 -16   21.46    1.55
  -6  -4 -16    8.87    2.11
  -6   4 -16    7.43    1.32
  -7  -4 -16    4.78    2.16
  -7   4 -16    8.25    1.53
   7  -5 -16   10.64    2.15
   6  -5 -16   16.68    2.12
   5  -5 -16   60.32    3.36
  -5   5  16   56.39    2.03
   4  -5 -16    9.41    1.60
  -4   5  16    8.94    0.78
   3  -5 -16    2.15    1.07
  -3   5  16    1.57    0.49
   2  -5 -16   17.01    1.82
  -2   5  16   17.78    0.95
   1  -5 -16    1.57    0.55
   1  -5 -16    1.37    1.41
  -1  -5  16    1.90    0.41
  -1   5  16    1.56    0.43
   1   5 -16    1.40    0.77
   0  -5 -16   17.31    1.08
   0  -5  16   16.75    0.97
   0  -5 -16   13.42    1.99
   0   5  16   17.63    1.24
   0   5 -16   16.05    1.60
  -1  -5 -16  165.31    5.07
  -1  -5 -16  156.32    6.48
   1  -5  16  163.99    4.91
   1   5  16  164.27    6.02
   2  -5  16   58.79    2.17
  -2  -5 -16   48.34    2.95
  -2  -5 -16   56.00    2.14
  -2   5 -16   56.64    2.01
  -3  -5 -16    0.48    0.97
  -3   5 -16    1.01    0.77
  -4  -5 -16   25.71    2.57
  -4   5 -16   29.45    2.05
  -5  -5 -16   -1.08    1.20
  -5   5 -16   -0.13    0.84
  -5   5 -16    0.44    0.84
  -6  -5 -16    3.57    1.77
  -6   5 -16    5.25    1.20
   7  -6 -16    8.01    2.20
   6  -6 -16   -0.37    1.63
   5  -6 -16    1.79    1.59
  -5   6  16    1.05    0.55
   4  -6 -16   25.60    2.45
  -4   6  16   25.47    1.33
   3  -6 -16    1.40    1.30
  -3   6  16    1.22    0.53
   2  -6 -16   15.43    1.85
  -2   6  16   13.39    0.90
   1  -6 -16    1.06    1.53
   1  -6 -16    3.65    0.71
  -1  -6  16    4.21    0.53
   0  -6  16   54.26    1.98
   0  -6 -16   51.66    3.33
   0  -6 -16   55.94    2.11
   0   6 -16   52.00    2.85
   0   6  16   54.90    2.53
  -1  -6 -16    0.11    0.58
  -1  -6 -16    0.71    0.99
   1  -6  16   -0.22    0.51
  -2  -6 -16    9.93    0.88
   2  -6  16   11.38    1.11
  -2  -6 -16    7.71    1.28
  -2   6 -16    9.91    0.90
  -3  -6 -16   20.32    1.99
  -3   6 -16   19.31    1.62
  -4  -6 -16    1.00    1.21
  -4   6 -16    1.12    0.91
  -5  -6 -16    1.45    1.36
  -5   6 -16    2.42    1.08
  -6  -6 -16   -1.60    1.29
   6  -7 -16   -2.21    1.72
   5  -7 -16   25.14    2.70
  -5   7  16   20.22    1.33
   4  -7 -16    2.61    1.58
  -4   7  16    1.80    0.67
   3  -7 -16   13.64    1.84
  -3   7  16   12.57    1.03
   2  -7 -16   11.41    1.81
  -2   7  16   10.63    0.92
   1  -7 -16   24.91    2.71
  -1  -7  16   27.65    1.24
   1  -7 -16   27.80    1.49
   0  -7 -16   75.56    2.75
   0  -7  16   74.26    2.62
   0  -7 -16   81.37    4.08
   1  -7  16   23.37    1.36
  -1  -7 -16   22.02    1.44
  -1  -7 -16   20.21    1.99
  -3  -7 -16   14.05    1.77
  -3   7 -16   17.30    1.51
  -4  -7 -16    0.18    1.09
  -4   7 -16   -0.44    0.90
  -5  -7 -16   -1.61    1.13
  -5   7 -16    0.23    1.03
   6  -8 -16    6.40    2.04
   5  -8 -16    1.89    1.70
  -5   8  16    0.04    0.69
   4  -8 -16    0.59    1.56
  -4   8  16    0.41    0.64
   3  -8 -16    6.93    1.68
  -3   8  16    6.48    0.82
   2  -8 -16   26.76    1.71
   2  -8 -16   26.57    2.55
  -2   8  16   27.60    1.44
   1  -8 -16   19.35    1.38
   1  -8 -16   12.82    2.09
  -1  -8  16   20.06    1.11
   0  -8  16    4.02    0.71
   0  -8 -16    4.35    1.54
   0  -8 -16    5.16    0.86
  -1  -8 -16   21.02    1.50
  -1  -8 -16   28.26    2.15
   1  -8  16   22.95    1.49
   2  -8  16   15.38    1.44
  -3   8 -16    4.00    1.04
  -4   8 -16   11.44    1.47
  -5   8 -16    5.79    1.40
   6  -9 -16   -0.35    1.90
   5  -9 -16   14.21    2.28
  -5   9  16   11.75    1.16
   4  -9 -16    2.78    1.74
  -4   9  16    2.34    0.77
   3  -9 -16    3.47    1.62
   2  -9 -16    1.70    0.95
   1  -9 -16   34.58    1.84
  -1  -9  16   35.02    1.54
   0  -9  16   25.45    1.45
   0  -9 -16   24.88    1.58
  -1  -9 -16   13.12    1.25
   1  -9  16   12.76    1.21
   2  -9  16    6.17    1.05
  -3   9 -16   11.80    1.40
  -4   9 -16    1.36    1.08
  -5   9 -16    1.54    1.13
  -5  10  16    8.12    1.09
  -4  10  16    0.80    0.75
  -3  10  16   31.29    1.72
   2 -10 -16    9.72    1.30
   1 -10 -16   23.26    1.69
   0 -10 -16   14.41    1.30
   0 -10  16   14.08    1.29
   1 -10  16   17.83    1.53
  -1 -10 -16   18.70    1.41
   2 -10  16   28.64    1.92
   3 -10  16   -0.14    0.95
  -4  10 -16   11.32    1.55
  -4  11  16    2.05    0.84
  -3  11  16    0.59    0.81
   2 -11 -16    5.27    1.19
   1 -11 -16   -0.15    0.88
   0 -11 -16    2.07    0.83
   0 -11  16    2.29    0.81
   1 -11  16   16.71    1.57
  -1 -11 -16   17.29    1.18
   2 -11  16   15.04    1.57
   3 -11  16   -1.11    0.99
  -4  11 -16    1.76    1.12
   3 -12 -16   37.45    2.53
   2 -12 -16   -0.96    1.00
   1 -12 -16   25.13    1.93
   0 -12 -16   12.83    1.24
   0 -12  16   13.61    1.29
   1 -12  16    6.03    1.14
   2 -12  16   23.87    1.99
   3 -12  16    6.62    1.40
   2 -13 -16    1.09    1.12
   1 -13 -16   10.48    1.31
   0 -13 -16    2.34    0.77
   1 -13  16   -0.69    0.91
   7   0 -17   -2.20    1.40
   6   0 -17   -0.24    1.22
   5   0 -17    0.85    1.04
   4   0 -17    0.12    0.86
  -3   0  17    0.20    0.23
   3   0 -17    0.28    0.71
   2   0 -17    1.00    0.81
   2   0 -17    0.28    0.87
  -2   0  17    0.20    0.29
   1   0 -17    2.41    0.87
   1   0 -17    1.63    0.46
  -1   0  17    1.57    0.35
   1   0 -17    1.04    1.21
   0   0  17    0.06    0.34
   0   0  17    0.42    0.38
   0   0 -17    1.15    1.01
   0   0 -17   -0.46    1.15
   0   0 -17    0.17    0.39
  -1   0 -17   -1.17    0.87
   1   0  17    0.49    0.43
  -1   0 -17   -0.09    0.47
  -2   0 -17   -0.16    0.66
   2   0  17    0.04    0.41
  -2   0 -17    0.22    0.47
  -3   0 -17    0.68    0.51
  -3   0 -17    0.17    0.60
  -4   0 -17    0.24    0.80
  -4   0 -17    0.07    0.45
  -5   0 -17    0.80    1.02
  -6   0 -17   -1.35    0.98
  -7   0 -17   -0.89    1.35
   7  -1 -17   55.37    3.58
   7   1 -17   56.14    3.36
   6  -1 -17    1.43    1.38
   6   1 -17    1.79    1.26
   5  -1 -17   54.74    2.88
   5   1 -17   52.09    2.73
   4  -1 -17   47.15    2.45
   4   1 -17   44.43    2.29
   3  -1 -17    1.07    0.80
  -3   1  17   -0.12    0.27
   3   1 -17    0.53    0.78
  -2  -1  17   39.17    1.32
   2  -1 -17   37.45    2.06
   2  -1 -17   38.76    2.25
   2   1 -17   38.11    2.02
  -2   1  17   39.84    1.36
   2   1 -17   36.49    2.10
   1  -1 -17   16.89    1.56
  -1  -1  17   13.63    0.76
   1  -1 -17   14.18    1.74
  -1   1  17   14.62    0.77
   1   1 -17   15.37    0.95
   1   1 -17   15.35    1.66
   1   1 -17   15.75    1.48
   0  -1  17  283.84    9.81
   0  -1 -17  285.48    8.05
   0  -1 -17  278.07   10.56
   0  -1 -17  289.98   10.26
   0  -1  17  286.76    8.01
   0   1 -17  273.55    9.87
   0   1  17  290.26    9.85
   0   1  17  296.57    8.00
   0   1 -17  279.06   10.42
  -1  -1 -17   11.29    0.96
   1  -1  17    9.44    0.84
   1  -1  17   10.03    0.73
  -1  -1 -17    7.41    1.38
  -1   1 -17   11.71    0.83
   1   1  17   11.04    0.87
  -1   1 -17    9.96    1.10
   2  -1  17   11.73    0.96
   2   1  17   11.93    0.93
  -3  -1 -17    7.73    1.24
  -3  -1 -17    7.91    0.81
  -3   1 -17    8.15    1.01
  -3   1 -17    6.59    0.82
  -4  -1 -17   19.02    1.80
  -4   1 -17   20.22    1.39
  -4   1 -17   21.03    1.60
  -5  -1 -17    1.77    1.23
  -5   1 -17    4.57    1.12
  -6  -1 -17    7.61    1.79
  -6   1 -17    9.84    1.58
  -7  -1 -17    6.14    2.00
  -7   1 -17    9.60    1.77
   7  -2 -17    0.48    1.63
   6  -2 -17    1.90    1.46
   6   2 -17    2.39    1.28
   5  -2 -17    1.65    1.22
   5   2 -17    0.13    0.99
   4  -2 -17    3.30    1.09
  -4   2  17    3.95    0.39
   4   2 -17    3.60    0.98
   3  -2 -17   63.75    2.85
   3   2 -17   62.43    2.72
  -3   2  17   63.51    2.02
   2  -2 -17    6.16    1.19
  -2  -2  17    6.83    0.51
   2  -2 -17    6.53    1.21
   2   2 -17    7.85    1.08
  -2   2  17    6.83    0.58
   2   2 -17    7.37    1.01
   1  -2 -17    5.11    1.42
   1  -2 -17    9.61    1.36
   1   2 -17   13.08    1.35
   0  -2 -17  114.74    5.16
   0  -2 -17  119.19    5.22
   0  -2 -17  113.06    3.58
   0  -2  17  118.01    3.54
   0   2 -17  120.08    4.91
   0   2 -17  119.48    4.35
   0   2  17  117.16    4.32
   0   2  17  120.81    3.51
  -1  -2 -17   10.43    0.97
  -1  -2 -17   11.46    1.83
   1  -2  17   11.51    0.92
   1  -2  17   12.36    0.81
  -1   2 -17   11.30    0.95
  -1   2 -17   10.97    0.82
   1   2  17   10.98    0.88
  -2  -2 -17    2.82    1.12
   2  -2  17    3.35    0.67
  -2  -2 -17    2.74    0.67
   2   2  17    3.17    0.61
  -2   2 -17    2.49    0.55
  -2   2 -17    3.88    0.65
  -3  -2 -17    0.49    0.43
  -3  -2 -17    0.39    0.89
  -3   2 -17   -0.31    0.48
  -3   2 -17    0.32    0.52
  -4  -2 -17   86.41    4.37
  -4   2 -17   83.37    3.34
  -4   2 -17   86.78    3.55
  -5  -2 -17    3.48    1.51
  -5   2 -17    5.52    1.08
  -6  -2 -17    1.47    1.49
  -6   2 -17    2.12    1.11
  -7  -2 -17   10.62    2.51
  -7   2 -17   11.83    1.80
   7  -3 -17    7.56    1.90
   6  -3 -17    1.50    1.43
   5  -3 -17   33.86    2.52
   4  -3 -17   -0.02    1.11
  -4   3  17    0.20    0.36
   3  -3 -17    1.61    1.09
  -3   3  17    0.58    0.35
   2  -3 -17  134.80    5.38
   2  -3 -17  132.92    5.13
  -2  -3  17  130.38    3.75
   2   3 -17  127.55    5.06
  -2   3  17  129.49    3.86
   1  -3 -17   25.53    1.23
  -1  -3  17   28.45    1.12
   1  -3 -17   25.85    2.01
   1  -3 -17   24.07    2.52
   1   3 -17   26.46    1.75
  -1   3  17   28.27    1.11
   0  -3 -17   14.98    2.11
   0  -3  17   13.53    0.84
   0  -3 -17   14.49    0.97
   0   3 -17   14.47    1.56
   0   3 -17   14.99    0.96
   0   3  17   13.13    0.98
   0   3  17   14.75    0.80
   1  -3  17    8.98    0.80
  -1  -3 -17    5.77    1.51
  -1  -3 -17   11.08    0.97
  -1   3 -17    9.39    0.77
   1   3  17   12.04    0.96
  -1   3 -17   10.43    0.80
  -2  -3 -17   17.98    1.24
  -2  -3 -17   17.55    1.94
  -2   3 -17   16.86    1.06
  -2   3 -17   18.55    1.11
  -3  -3 -17    1.18    1.06
  -3  -3 -17    0.37    0.35
  -3   3 -17   -0.03    0.48
  -3   3 -17    0.54    0.53
  -4  -3 -17    6.07    1.57
  -4   3 -17    7.19    1.16
  -4   3 -17    6.96    0.96
  -5  -3 -17   25.61    2.78
  -5   3 -17   23.27    1.36
  -5   3 -17   23.40    1.79
  -6  -3 -17   11.29    2.35
  -6   3 -17   14.95    1.66
  -7  -3 -17   -0.04    1.82
  -7   3 -17    0.91    1.21
   7  -4 -17   -0.59    1.75
   6  -4 -17   -0.72    1.44
   5  -4 -17   65.99    3.53
   4  -4 -17   11.82    1.52
  -4   4  17   11.83    0.84
   3  -4 -17   14.31    1.61
  -3   4  17   12.89    0.86
   2  -4 -17    0.10    0.95
  -2  -4  17    0.12    0.25
   2  -4 -17   -0.04    1.20
  -2   4  17   -0.05    0.36
   1  -4 -17   58.99    3.40
   1  -4 -17   65.21    2.22
  -1  -4  17   62.16    2.06
  -1   4  17   63.51    2.09
   1   4 -17   64.93    2.92
   0  -4 -17   62.71    3.69
   0  -4 -17   60.49    2.22
   0  -4  17   63.25    2.15
   0   4  17   62.99    2.65
   0   4 -17   66.91    3.11
  -1  -4 -17   -0.65    1.12
  -1  -4 -17    1.90    0.61
   1  -4  17    0.68    0.45
  -1   4 -17    0.71    0.45
   1   4  17    1.46    0.56
  -2  -4 -17  242.57    7.01
  -2  -4 -17  215.34    8.84
  -2   4 -17  238.06    6.78
  -2   4 -17  235.87    7.95
  -3  -4 -17    0.18    0.97
  -3   4 -17    0.97    0.53
  -3   4 -17    0.45    0.56
  -4  -4 -17    9.08    1.74
  -4   4 -17    9.33    1.07
  -4   4 -17    8.79    1.31
  -5  -4 -17   10.28    2.08
  -5   4 -17   11.95    1.33
  -5   4 -17   12.09    1.25
  -6  -4 -17   16.43    2.66
  -6   4 -17   17.05    1.72
   7  -5 -17   18.53    2.53
   6  -5 -17    1.46    1.70
   5  -5 -17    0.31    1.48
  -5   5  17    0.08    0.42
   4  -5 -17    6.26    1.54
  -4   5  17    6.63    0.73
   3  -5 -17    1.19    1.19
   2  -5 -17    2.90    1.35
  -2   5  17    3.96    0.55
  -1  -5  17   12.53    0.77
   1  -5 -17    5.58    1.74
   0  -5 -17   53.22    3.28
   0  -5  17   54.56    1.97
   0  -5 -17   55.52    2.07
   0   5 -17   56.23    2.90
   0   5  17   54.67    2.47
  -1  -5 -17   23.55    2.21
   1  -5  17   28.92    1.37
  -1  -5 -17   28.18    1.50
   1   5  17   27.71    1.60
  -2  -5 -17    2.77    1.03
  -2  -5 -17    1.68    0.59
   2  -5  17    2.28    0.71
  -2   5 -17    1.98    0.55
  -3  -5 -17   17.47    1.96
  -4  -5 -17    0.45    1.11
  -4   5 -17   -0.78    0.85
  -5  -5 -17    0.09    1.29
  -5   5 -17    0.46    0.86
  -5   5 -17   -0.01    0.96
  -6  -5 -17    1.08    1.57
   7  -6 -17    2.31    2.00
   6  -6 -17    7.98    2.03
   5  -6 -17    6.07    1.73
  -5   6  17    6.07    0.76
   4  -6 -17   16.65    1.96
  -4   6  17   15.93    1.11
   3  -6 -17  167.79    6.68
  -3   6  17  177.14    5.17
   2  -6 -17   19.36    2.03
  -2   6  17   20.25    1.09
   1  -6 -17   -2.21    1.50
   1  -6 -17    0.51    0.61
  -1  -6  17    0.58    0.42
   0  -6  17  141.66    4.36
   0  -6 -17  146.63    6.23
   0  -6 -17  142.23    4.48
  -1  -6 -17   24.46    2.14
  -1  -6 -17   24.11    1.49
   1  -6  17   27.00    1.38
  -2  -6 -17   49.22    1.99
  -2  -6 -17   48.13    2.92
   2  -6  17   56.18    2.21
  -2   6 -17   54.32    1.97
  -3  -6 -17    0.30    0.95
  -3   6 -17    0.40    0.80
  -4  -6 -17  137.28    6.20
  -4   6 -17  131.33    4.95
  -5  -6 -17    3.19    1.53
  -5   6 -17    4.25    1.21
  -6  -6 -17   -2.80    1.21
   6  -7 -17    0.88    1.85
   5  -7 -17    0.97    1.68
  -5   7  17    0.00    0.57
   4  -7 -17   20.93    2.49
  -4   7  17   22.44    1.34
   3  -7 -17    2.59    1.50
  -3   7  17    3.60    0.68
   2  -7 -17   21.11    2.20
  -2   7  17   19.78    1.17
   1  -7 -17   25.99    1.44
  -1  -7  17   24.30    1.19
   1  -7 -17   25.72    2.59
   0  -7  17   47.07    1.92
   0  -7 -17   53.82    3.35
   0  -7 -17   49.26    2.06
  -1  -7 -17    7.15    0.97
  -1  -7 -17    8.55    1.43
   1  -7  17    6.59    0.86
   2  -7  17   14.14    1.32
  -2  -7 -17   13.60    1.66
  -2  -7 -17   12.81    0.90
  -3  -7 -17   10.89    1.66
  -3   7 -17   16.09    1.49
  -4  -7 -17    0.24    1.13
  -4   7 -17    1.32    1.01
  -5  -7 -17   10.14    1.99
  -5   7 -17   13.94    1.78
   6  -8 -17   13.74    2.35
   5  -8 -17   44.23    3.50
  -5   8  17   40.03    1.96
   4  -8 -17    0.39    1.60
  -4   8  17    0.50    0.65
   3  -8 -17    2.82    1.57
  -3   8  17    3.71    0.75
   2  -8 -17    2.38    0.88
   2  -8 -17    1.41    1.52
  -2   8  17    1.94    0.64
   1  -8 -17  114.14    3.76
  -1  -8  17  106.71    3.52
   1  -8 -17  113.75    5.19
   0  -8  17   16.64    1.18
   0  -8 -17   19.89    2.24
   0  -8 -17   16.45    1.31
  -1  -8 -17   34.72    1.84
   1  -8  17   30.25    1.70
  -1  -8 -17   30.21    2.36
  -2  -8 -17  138.13    5.91
  -2  -8 -17  125.11    4.01
   2  -8  17  161.06    4.75
  -3   8 -17    0.49    0.89
  -4   8 -17    3.09    1.14
  -5   8 -17   11.04    1.64
   6  -9 -17   10.35    2.33
   5  -9 -17   32.04    3.29
  -5   9  17   26.83    1.68
   4  -9 -17    2.41    1.71
  -4   9  17    3.03    0.79
   3  -9 -17    1.84    1.58
  -3   9  17    2.24    0.71
   2  -9 -17   59.83    2.63
   2  -9 -17   58.63    3.58
   1  -9 -17   -0.11    0.78
  -1  -9  17    1.36    0.58
   0  -9  17    2.34    0.72
   0  -9 -17    2.31    0.80
  -1  -9 -17   12.12    1.22
   1  -9  17   11.76    1.20
   2  -9  17   18.45    1.59
  -3   9 -17    8.50    1.28
  -4   9 -17    3.26    1.17
  -5   9 -17    5.27    1.40
  -5  10  17    0.29    0.80
  -4  10  17   12.08    1.16
  -3  10  17   56.32    2.35
   2 -10 -17    0.23    0.98
   1 -10 -17    6.17    1.06
   0 -10  17   24.63    1.54
   0 -10 -17   26.36    1.70
   1 -10  17    1.86    0.88
  -1 -10 -17    1.92    0.78
   2 -10  17    1.16    0.96
   3 -10  17    6.37    1.24
  -4  10 -17   49.74    2.79
  -4  11  17   32.03    1.85
  -3  11  17   11.06    1.16
   2 -11 -17   -0.36    1.00
   1 -11 -17    1.24    0.94
   0 -11  17   34.73    1.86
   0 -11 -17   37.12    1.98
   1 -11  17   15.82    1.44
  -1 -11 -17   16.02    1.19
   2 -11  17    0.01    0.94
   3 -11  17   27.10    2.18
   3 -12 -17   -0.01    1.22
   2 -12 -17    2.96    1.17
   1 -12 -17    8.83    1.26
   0 -12  17    5.51    0.91
   0 -12 -17    4.85    0.94
   1 -12  17   14.13    1.44
   2 -12  17   20.29    1.92
   3 -12  17    1.09    1.25
   2 -13 -17   51.69    2.91
   1 -13 -17    4.57    1.13
   0 -13 -17    1.78    0.75
   1 -13  17   -0.01    0.95
   7   0 -18    0.62    1.51
   6   0 -18    0.71    1.31
   5   0 -18   82.67    3.72
   4   0 -18   82.80    3.53
   3   0 -18   12.67    1.43
  -3   0  18   11.07    0.60
  -2   0  18  202.62    5.65
   2   0 -18  195.88    7.42
   2   0 -18  197.86    7.11
   1   0 -18    2.28    1.27
   1   0 -18    3.64    1.04
  -1   0  18    2.39    0.41
   0   0  18   76.38    2.37
   0   0  18   73.34    2.86
   0   0 -18   74.95    3.51
   0   0 -18   72.58    3.65
   0   0 -18   75.03    2.41
  -1   0 -18    0.68    0.52
   1   0  18    0.41    0.44
  -1   0 -18    0.37    0.82
  -2   0 -18  225.79    6.71
  -2   0 -18  218.79    8.18
   2   0  18  233.59    8.00
  -3   0 -18    7.21    1.13
  -3   0 -18    8.38    0.89
  -4   0 -18   51.02    2.01
  -4   0 -18   47.90    2.73
  -5   0 -18  104.71    4.79
  -6   0 -18   -0.04    1.20
  -7   0 -18    8.10    2.00
   7  -1 -18    7.30    1.83
   7   1 -18    4.35    1.64
   6  -1 -18   36.90    2.72
   6   1 -18   39.74    2.70
   5  -1 -18    2.08    1.21
   5   1 -18    0.91    1.13
   4  -1 -18    3.60    1.14
   4   1 -18    3.65    1.05
   3  -1 -18   35.79    2.00
  -3  -1  18   32.73    1.08
  -3   1  18   38.83    1.28
   3   1 -18   36.02    1.98
   2  -1 -18    7.03    1.12
  -2  -1  18    9.97    0.61
   2  -1 -18    7.94    1.23
  -2   1  18    9.55    0.64
   2   1 -18    8.83    1.19
   2   1 -18    9.24    1.14
   1  -1 -18   48.78    2.92
   1  -1 -18   49.41    2.66
  -1  -1  18   52.66    1.73
   1   1 -18   50.77    2.62
  -1   1  18   52.61    1.74
   1   1 -18   52.53    2.60
   0  -1 -18  103.43    4.72
   0  -1 -18  105.99    3.27
   0  -1 -18  105.49    4.58
   0  -1  18  106.66    3.23
   0   1  18  108.99    3.21
   0   1 -18  106.36    4.59
   0   1 -18  108.97    3.26
   0   1  18  106.94    3.93
   0   1 -18  100.01    4.16
   1  -1  18  123.41    4.54
  -1  -1 -18  129.92    5.27
  -1  -1 -18  123.02    3.87
   1  -1  18  126.49    3.74
  -1   1 -18  120.25    3.77
  -1   1 -18  115.31    4.65
   1   1  18  125.98    4.55
  -2  -1 -18   56.86    2.21
  -2  -1 -18   55.44    2.90
   2  -1  18   58.29    2.39
   2   1  18   57.28    2.36
  -2   1 -18   52.10    2.43
  -2   1 -18   51.92    2.08
  -3  -1 -18    5.52    1.21
  -3  -1 -18    5.03    0.74
  -3   1 -18    5.28    0.92
  -3   1 -18    5.30    0.77
  -4  -1 -18   22.94    2.09
  -4   1 -18   20.73    1.50
  -4   1 -18   22.61    1.61
  -5  -1 -18    0.05    1.15
  -5   1 -18    1.13    0.96
  -6  -1 -18    8.56    1.95
  -6   1 -18    9.28    1.59
  -7  -1 -18    3.15    1.93
  -7   1 -18    4.62    1.61
   7  -2 -18   28.08    2.84
   6  -2 -18   29.69    2.61
   6   2 -18   29.68    2.45
   5  -2 -18    8.78    1.48
   5   2 -18    6.36    1.29
   4  -2 -18   12.54    1.48
  -4   2  18   10.63    0.63
   4   2 -18   11.85    1.28
   3  -2 -18   42.84    2.30
   3   2 -18   44.25    2.23
  -3   2  18   43.52    1.52
   2  -2 -18   20.92    1.75
   2   2 -18   15.29    1.44
   2   2 -18   21.70    1.57
  -1  -2  18    0.82    0.35
   1  -2 -18   -1.02    1.35
   1  -2 -18    1.41    0.98
   1   2 -18    0.91    0.79
   1   2 -18    1.03    0.90
  -1   2  18    0.87    0.35
   0  -2 -18  302.52    8.65
   0  -2  18  304.16    8.62
   0  -2 -18  298.09   11.07
   0   2 -18  312.60   10.43
   0   2 -18  310.46   11.17
   0   2  18  308.96    8.58
   0   2  18  304.24   10.59
   1  -2  18   57.74    2.01
  -1  -2 -18   59.63    3.23
  -1  -2 -18   54.43    2.14
   1   2  18   54.63    2.38
  -1   2 -18   60.72    2.42
  -1   2 -18   58.49    2.01
   2  -2  18   74.77    3.01
  -2  -2 -18   76.22    2.75
  -2  -2 -18   71.21    3.75
  -2   2 -18   69.83    2.55
  -2   2 -18   73.68    2.92
   2   2  18   74.19    2.97
  -3  -2 -18   42.08    1.74
  -3  -2 -18   42.96    2.72
  -3   2 -18   41.56    1.87
  -3   2 -18   43.36    2.07
  -4  -2 -18   28.51    2.58
  -4   2 -18   27.17    1.74
  -4   2 -18   30.13    1.91
  -5  -2 -18    0.68    1.33
  -5   2 -18    2.10    0.95
  -6  -2 -18    0.88    1.59
  -6   2 -18    5.75    1.28
  -7  -2 -18   52.53    4.31
  -7   2 -18   55.71    3.34
   7  -3 -18   11.76    2.14
   6  -3 -18    0.93    1.55
   5  -3 -18   43.55    2.88
   4  -3 -18   67.37    3.24
  -4   3  18   67.53    2.20
   3  -3 -18   22.47    1.80
  -3   3  18   23.35    1.04
   2  -3 -18   39.20    2.41
  -2  -3  18   36.89    1.29
   2  -3 -18   38.46    2.30
  -2   3  18   38.24    1.40
   1  -3 -18   58.70    3.10
  -1  -3  18   62.72    1.99
   1  -3 -18   60.19    2.11
   1  -3 -18   55.47    3.36
  -1   3  18   59.74    1.98
   1   3 -18   58.58    2.82
   0  -3 -18    6.91    1.83
   0  -3 -18    8.65    0.77
   0  -3  18    7.21    0.72
   0   3 -18    9.57    1.38
   0   3  18    8.02    0.67
   0   3  18    6.88    0.80
   0   3 -18    8.73    0.81
  -1  -3 -18   -0.52    1.26
   1  -3  18    1.46    0.49
  -1  -3 -18    2.22    0.59
  -1   3 -18    1.12    0.44
   1   3  18    2.24    0.56
  -1   3 -18    1.49    0.46
  -2  -3 -18   41.60    1.91
  -2  -3 -18   39.54    2.67
  -2   3 -18   43.34    1.76
  -2   3 -18   42.92    1.88
  -3  -3 -18   29.93    2.47
  -3  -3 -18   26.85    1.22
  -3   3 -18   28.14    1.49
  -3   3 -18   29.21    1.54
  -4  -3 -18   46.61    3.33
  -4   3 -18   46.05    2.27
  -4   3 -18   45.11    2.48
  -5  -3 -18   23.82    2.85
  -5   3 -18   24.33    1.77
  -5   3 -18   24.12    1.42
  -6  -3 -18    5.02    2.00
  -6   3 -18    6.99    1.34
   7  -4 -18   -2.07    1.71
   6  -4 -18    0.91    1.60
   5  -4 -18   20.34    2.40
   4  -4 -18   28.96    2.25
  -4   4  18   28.11    1.26
   3  -4 -18   11.83    1.54
  -3   4  18   10.95    0.82
  -2  -4  18   43.65    1.48
   2  -4 -18   46.28    2.75
  -2   4  18   45.63    1.63
  -1  -4  18   14.35    0.82
   1  -4 -18   13.98    1.00
   1  -4 -18   13.60    1.89
   1   4 -18   14.86    1.40
  -1   4  18   14.93    0.86
   0  -4  18    7.12    0.66
   0  -4 -18    8.01    1.89
   0  -4 -18    7.30    0.78
   0   4  18    7.37    0.90
   0   4 -18    7.82    1.23
  -1  -4 -18   10.90    1.75
   1  -4  18   12.21    0.97
  -1  -4 -18   11.82    1.08
  -1   4 -18   12.61    0.91
   1   4  18   14.77    1.14
  -2  -4 -18   64.15    3.62
  -2  -4 -18   80.90    2.81
  -2   4 -18   75.33    2.55
  -3  -4 -18   22.87    2.24
  -3  -4 -18   21.06    0.84
  -3   4 -18   20.02    1.28
  -3   4 -18   20.19    1.33
  -4  -4 -18    8.23    1.68
  -4   4 -18    8.63    1.03
  -4   4 -18   10.12    1.39
  -5  -4 -18   28.17    3.01
  -5   4 -18   30.68    1.97
  -5   4 -18   30.63    1.85
  -6  -4 -18    1.41    1.76
  -6   4 -18    1.20    1.07
   7  -5 -18   26.99    2.83
   6  -5 -18   11.80    2.11
   5  -5 -18    4.71    1.54
  -5   5  18    4.91    0.63
   4  -5 -18   40.70    2.68
  -4   5  18   39.73    1.63
   3  -5 -18   25.25    2.32
  -3   5  18   27.40    1.26
   2  -5 -18   91.01    4.12
  -2   5  18   94.52    2.96
  -1  -5  18   10.29    0.76
   1  -5 -18    8.55    1.95
   1  -5 -18    9.69    0.95
  -1   5  18   10.50    0.79
   0  -5 -18   82.09    2.80
   0  -5 -18   80.79    4.34
   0  -5  18   79.25    2.69
   0   5  18   84.11    3.49
   0   5 -18   81.50    3.80
   1  -5  18   38.43    1.66
  -1  -5 -18   39.29    1.83
  -1  -5 -18   39.23    2.75
  -2  -5 -18    6.24    1.31
  -2  -5 -18    5.25    0.80
  -2   5 -18    7.07    0.71
  -3  -5 -18   41.86    2.86
  -4  -5 -18    0.10    1.16
  -4   5 -18   -0.03    0.96
  -5  -5 -18    5.87    1.84
  -5   5 -18    6.01    1.18
  -6  -5 -18    3.99    1.87
   6  -6 -18    0.03    1.77
   5  -6 -18    0.05    1.63
  -5   6  18    0.06    0.52
   4  -6 -18    0.36    1.50
  -4   6  18    0.98    0.58
   3  -6 -18   -0.81    1.39
  -3   6  18    0.63    0.52
   2  -6 -18   12.95    1.80
  -2   6  18   12.18    0.93
   1  -6 -18    1.28    1.61
   1  -6 -18    3.13    0.68
  -1  -6  18    3.59    0.54
   0  -6  18   36.67    1.57
   0  -6 -18   37.36    1.71
   0  -6 -18   37.03    3.00
   1  -6  18   15.61    1.16
  -1  -6 -18   16.78    1.94
  -1  -6 -18   15.83    1.29
  -2  -6 -18    1.63    0.57
  -2  -6 -18    1.55    0.94
   2  -6  18    2.09    0.70
  -2   6 -18    1.59    0.56
  -3  -6 -18    1.06    0.99
  -3   6 -18   -0.76    0.79
  -4  -6 -18    0.05    1.17
  -4   6 -18    1.19    1.02
  -5  -6 -18    1.42    1.34
  -5   6 -18    1.60    1.06
  -6  -6 -18   -1.36    1.40
   6  -7 -18   -0.08    1.88
   5  -7 -18   24.34    2.80
  -5   7  18   19.54    1.32
   4  -7 -18   41.20    3.12
  -4   7  18   44.06    1.87
   3  -7 -18    6.45    1.66
  -3   7  18    6.67    0.79
   2  -7 -18   87.83    4.31
  -2   7  18   90.02    2.98
   1  -7 -18   12.64    1.19
  -1  -7  18   10.89    0.88
   1  -7 -18   10.29    1.98
   0  -7 -18   44.07    3.13
   0  -7 -18   42.49    1.89
   0  -7  18   39.54    1.75
  -1  -7 -18    5.11    0.93
   1  -7  18    3.44    0.75
  -1  -7 -18    3.71    1.26
  -2  -7 -18    3.51    0.59
  -2  -7 -18    4.35    1.12
   2  -7  18    4.56    0.92
  -3  -7 -18   45.29    3.02
  -3   7 -18   51.75    2.51
  -4  -7 -18   18.50    2.30
  -4   7 -18   20.08    1.85
  -5  -7 -18    8.60    1.91
  -5   7 -18   12.70    1.74
   6  -8 -18    4.38    2.08
   5  -8 -18    7.37    2.07
  -5   8  18    5.54    0.90
   4  -8 -18    3.47    1.73
  -4   8  18    2.41    0.73
   3  -8 -18   14.14    1.97
  -3   8  18   13.38    1.16
   2  -8 -18    3.81    1.67
   2  -8 -18    1.93    0.92
  -2   8  18    2.28    0.68
   1  -8 -18    0.90    1.56
   1  -8 -18    3.85    0.87
  -1  -8  18    5.54    0.69
   0  -8 -18   23.40    1.52
   0  -8 -18   26.31    2.61
   0  -8  18   24.29    1.39
  -1  -8 -18    5.87    0.97
  -1  -8 -18    7.35    1.42
   1  -8  18    4.74    0.87
  -2  -8 -18    1.71    0.40
  -2  -8 -18    2.87    1.03
   2  -8  18    1.62    0.86
  -3  -8 -18   15.03    2.14
  -3   8 -18   19.58    1.78
  -4   8 -18   11.63    1.56
  -5   8 -18    5.33    1.43
   5  -9 -18   -0.56    1.85
  -5   9  18   -0.29    0.73
   4  -9 -18   15.02    2.22
  -4   9  18   14.20    1.31
   3  -9 -18    1.75    1.57
  -3   9  18    1.33    0.72
   2  -9 -18   48.16    2.36
   2  -9 -18   48.99    3.24
  -1  -9  18    3.12    0.66
   1  -9 -18    4.44    0.98
   0  -9 -18   11.08    1.15
   0  -9  18   10.60    1.04
  -1  -9 -18    2.32    0.84
   1  -9  18    1.08    0.78
   2  -9  18    0.75    0.92
  -3   9 -18   18.54    1.79
  -4   9 -18    2.53    1.19
  -5  10  18    4.65    1.07
  -4  10  18    0.62    0.74
  -3  10  18    1.81    0.82
   2 -10 -18    1.50    1.01
   1 -10 -18    1.11    0.90
   0 -10 -18   39.12    2.01
   0 -10  18   37.77    1.88
  -1 -10 -18    1.17    0.74
   1 -10  18    1.22    0.84
   2 -10  18   13.26    1.42
   3 -10  18    1.39    1.05
  -4  10 -18    5.55    1.32
  -4  11  18    3.20    0.89
  -3  11  18    1.16    0.82
   2 -11 -18   17.20    1.60
   1 -11 -18   21.93    1.82
   0 -11 -18   10.10    1.18
   0 -11  18    9.80    1.10
   1 -11  18    2.97    1.00
  -1 -11 -18    4.67    0.78
   2 -11  18    7.06    1.25
   3 -11  18    1.63    1.17
   3 -12 -18    2.21    1.27
   2 -12 -18    9.81    1.41
   1 -12 -18    1.53    1.01
   0 -12  18   24.55    1.52
   0 -12 -18   21.68    1.63
   1 -12  18    1.34    1.03
   2 -12  18   35.40    2.29
   1 -13 -18    2.97    1.08
   0 -13 -18    1.60    0.73
   7   0 -19   -0.78    1.49
   6   0 -19    0.41    1.35
   5   0 -19    1.08    1.17
   4   0 -19    0.47    1.02
  -3   0  19    0.31    0.29
   3   0 -19    0.61    0.95
  -2   0  19   -0.26    0.30
   2   0 -19   -0.31    0.95
   2   0 -19    0.05    0.81
   1   0 -19    0.34    0.85
   1   0 -19   -0.24    1.17
  -1   0  19    0.17    0.35
   0   0 -19   -0.15    0.98
   0   0 -19   -1.67    1.08
   0   0 -19    0.41    0.45
   0   0  19    0.33    0.39
  -1   0 -19    0.35    0.50
   1   0  19   -0.03    0.43
  -1   0 -19   -0.36    0.88
  -2   0 -19    0.22    0.73
  -2   0 -19   -0.27    0.51
   2   0  19    0.12    0.48
  -3   0 -19    0.45    0.56
  -3   0 -19    1.66    0.80
  -4   0 -19    0.17    0.85
  -4   0 -19   -0.23    0.51
  -5   0 -19    0.32    1.06
  -6   0 -19    1.70    1.32
  -7   0 -19    0.07    1.53
   7  -1 -19    3.42    1.71
   7   1 -19    3.03    1.60
   6  -1 -19   23.24    2.38
   6   1 -19   24.27    2.26
   5  -1 -19   11.65    1.60
   5   1 -19   10.46    1.48
   4  -1 -19  122.69    4.89
   4   1 -19  121.01    4.75
   3  -1 -19    0.28    0.87
  -3  -1  19    0.41    0.22
  -3   1  19    1.23    0.35
   3   1 -19    0.22    0.86
  -2  -1  19  131.50    3.77
   2  -1 -19  128.38    5.21
   2  -1 -19  134.62    5.03
   2   1 -19  127.06    4.87
   2   1 -19  122.22    5.10
  -2   1  19  126.86    3.79
   1  -1 -19   47.16    2.78
  -1  -1  19   54.54    1.80
   1  -1 -19   52.48    2.77
   1   1 -19   52.81    2.62
   1   1 -19   53.82    2.71
  -1   1  19   54.70    1.81
   0  -1 -19   23.31    1.15
   0  -1 -19   19.22    2.23
   0  -1  19   24.62    1.09
   0   1 -19   21.77    1.77
   0   1 -19   24.85    2.03
   0   1  19   23.96    1.07
   0   1 -19   25.49    1.16
  -1  -1 -19  169.45    6.44
  -1  -1 -19  160.28    4.87
   1  -1  19  161.36    4.73
   1  -1  19  156.61    5.78
  -1   1 -19  152.66    5.86
  -1   1 -19  160.73    4.77
   1   1  19  157.83    5.76
  -2  -1 -19    0.52    0.57
   2  -1  19    0.54    0.53
  -2  -1 -19   -0.69    0.85
   2   1  19    0.28    0.51
  -2   1 -19    0.48    0.53
  -2   1 -19    0.36    0.61
  -3  -1 -19  128.31    5.39
  -3  -1 -19  125.67    4.12
  -3   1 -19  120.16    4.86
  -3   1 -19  127.37    4.17
  -4  -1 -19    4.02    1.24
  -4  -1 -19    4.01    0.48
  -4   1 -19    4.99    1.01
  -4   1 -19    3.41    0.89
  -5  -1 -19   22.88    2.49
  -5   1 -19   24.29    2.03
  -6  -1 -19    1.37    1.54
  -6   1 -19    3.60    1.31
  -7   1 -19   -2.11    1.33
   7  -2 -19    1.20    1.64
   6  -2 -19   19.87    2.19
   6   2 -19   19.33    2.10
   5  -2 -19    0.53    1.33
   5   2 -19   -0.08    1.09
   4  -2 -19    0.51    1.18
   4   2 -19   -0.23    0.94
  -4   2  19    0.35    0.31
   3  -2 -19    2.69    1.16
  -3   2  19    2.26    0.43
   3   2 -19    2.65    0.97
   2  -2 -19   15.11    1.66
   2  -2 -19   15.31    1.63
  -2  -2  19   15.52    0.77
  -2   2  19   13.76    0.81
   2   2 -19   14.79    1.49
   2   2 -19   17.13    1.54
   1  -2 -19   20.93    1.79
  -1  -2  19   19.56    0.96
   1  -2 -19   16.83    1.95
  -1   2  19   19.83    0.95
   1   2 -19   21.89    1.69
   1   2 -19   22.90    1.56
   0  -2 -19   11.28    1.75
   0  -2  19   10.42    0.80
   0  -2 -19   11.52    0.91
   0   2  19   12.01    0.92
   0   2 -19   12.25    1.14
   0   2 -19   12.62    1.52
   0   2  19   11.88    0.76
  -1  -2 -19   43.37    1.81
  -1  -2 -19   41.26    2.75
   1  -2  19   41.44    1.65
  -1   2 -19   46.68    2.03
   1   2  19   43.69    1.96
  -1   2 -19   44.06    1.67
  -2  -2 -19   13.44    1.19
  -2  -2 -19   12.39    1.68
  -2   2 -19   11.93    1.04
  -2   2 -19   13.10    1.07
  -3  -2 -19   25.76    1.38
  -3  -2 -19   26.10    2.33
  -3   2 -19   25.10    1.48
  -3   2 -19   26.73    1.60
  -4  -2 -19    0.59    1.27
  -4   2 -19    1.44    0.78
  -4   2 -19    1.48    0.90
  -5  -2 -19   10.59    2.07
  -5   2 -19   14.22    1.61
  -6  -2 -19    0.22    1.60
  -6   2 -19    0.59    1.05
   7  -3 -19   19.81    2.42
   6  -3 -19    1.83    1.60
   5  -3 -19    6.40    1.61
   4  -3 -19   81.31    3.84
  -4   3  19   79.62    2.56
   3  -3 -19    0.48    1.12
  -3   3  19    0.52    0.38
   2  -3 -19   54.49    2.97
  -2  -3  19   56.93    1.81
   2  -3 -19   58.52    2.92
  -2   3  19   55.64    1.90
   1  -3 -19   22.80    1.20
   1  -3 -19   22.89    2.24
  -1  -3  19   24.01    1.06
   1   3 -19   24.08    1.73
  -1   3  19   22.72    1.03
   0  -3  19    8.99    0.77
   0  -3 -19   11.04    1.98
   0  -3 -19   10.65    0.90
   0   3  19    9.12    0.89
   0   3 -19   11.59    0.89
   0   3 -19   11.45    1.45
  -1  -3 -19   14.78    1.16
   1  -3  19   17.15    1.04
  -1  -3 -19   17.35    2.10
   1   3  19   16.74    1.16
  -1   3 -19   16.78    1.04
  -1   3 -19   18.65    1.01
  -2  -3 -19    7.46    0.93
  -2  -3 -19    7.18    1.41
  -2   3 -19    7.28    0.78
  -2   3 -19    7.65    0.85
  -3  -3 -19  127.97    5.69
  -3  -3 -19  115.14    3.76
  -3   3 -19  119.66    4.01
  -3   3 -19  127.05    4.56
  -4  -3 -19    0.34    1.31
  -4   3 -19   -0.38    0.71
  -4   3 -19    0.75    0.90
  -5  -3 -19    7.69    1.99
  -5   3 -19    7.71    1.21
  -5   3 -19    8.23    0.92
  -6  -3 -19    1.21    1.77
  -6   3 -19    2.40    1.17
   7  -4 -19    4.15    1.98
   6  -4 -19    6.01    1.84
   5  -4 -19    0.95    1.43
   4  -4 -19    3.87    1.35
  -4   4  19    4.36    0.60
   3  -4 -19   16.20    1.83
  -3   4  19   18.06    0.99
  -1  -4  19   79.56    2.48
   1  -4 -19   77.04    4.04
   1  -4 -19   76.77    2.62
   1   4 -19   75.53    3.44
  -1   4  19   74.94    2.48
   0  -4 -19   82.27    4.32
   0  -4 -19   79.13    2.72
   0  -4  19   80.59    2.67
   0   4 -19   81.88    3.77
  -1  -4 -19    1.74    0.64
  -1  -4 -19    1.43    1.19
   1  -4  19    1.21    0.53
   1   4  19    2.84    0.68
  -2  -4 -19   -0.26    0.84
  -2  -4 -19    0.31    0.63
  -2   4 -19    0.27    0.49
  -3  -4 -19   17.10    0.84
  -3  -4 -19   18.31    2.19
  -3   4 -19   17.62    1.26
  -3   4 -19   18.07    1.26
  -4  -4 -19   27.21    2.73
  -4   4 -19   25.36    2.10
  -4   4 -19   25.94    1.72
  -5  -4 -19    5.58    1.83
  -5   4 -19    6.39    1.03
  -5   4 -19    7.01    1.13
  -6  -4 -19    4.12    1.94
  -6   4 -19    6.94    1.37
   7  -5 -19   -2.08    1.88
   6  -5 -19   25.42    2.67
   5  -5 -19    0.66    1.63
  -5   5  19    0.81    0.49
   4  -5 -19    1.25    1.48
  -4   5  19    0.70    0.52
   3  -5 -19    2.84    1.48
  -3   5  19    2.73    0.56
   2  -5 -19   54.15    3.18
  -2  -5  19   53.42    1.74
  -2   5  19   56.17    1.96
  -1  -5  19    7.82    0.73
   1  -5 -19    6.15    1.87
   1  -5 -19    8.06    0.82
  -1   5  19    7.78    0.76
   0  -5 -19    2.25    0.65
   0  -5  19    0.95    0.50
   0  -5 -19    0.37    1.59
   0   5 -19   -0.27    0.92
  -1  -5 -19   70.77    3.87
   1  -5  19   77.14    2.61
  -1  -5 -19   71.74    2.76
  -2  -5 -19    0.25    0.96
  -2  -5 -19    0.77    0.61
  -2   5 -19    0.63    0.53
  -3  -5 -19    3.74    1.23
  -3   5 -19    3.71    0.72
  -4  -5 -19    4.97    1.53
  -4   5 -19    4.62    1.23
  -5  -5 -19   14.42    2.40
  -5   5 -19   19.13    1.80
  -6  -5 -19   -2.06    1.36
   6  -6 -19   47.27    3.62
   5  -6 -19   21.46    2.41
  -5   6  19   18.78    1.22
   4  -6 -19    2.08    1.60
  -4   6  19    0.91    0.59
   3  -6 -19   30.05    2.61
  -3   6  19   27.70    1.39
   2  -6 -19   13.75    1.96
  -2   6  19   15.99    1.05
   1  -6 -19    4.48    1.76
   1  -6 -19    9.42    0.97
  -1  -6  19    8.46    0.79
   0  -6 -19   42.53    1.86
   0  -6 -19   43.68    3.19
   0  -6  19   41.61    1.73
   1  -6  19   20.52    1.31
  -1  -6 -19   22.76    2.25
  -1  -6 -19   22.36    1.49
   2  -6  19   93.01    3.15
  -2  -6 -19   75.97    4.11
  -2  -6 -19   87.84    3.04
  -2   6 -19   89.02    2.95
  -3  -6 -19   11.63    1.72
  -3   6 -19   16.24    1.53
  -4  -6 -19    8.62    1.72
  -4   6 -19    8.42    1.44
  -5  -6 -19   51.34    3.76
  -5   6 -19   65.85    3.22
  -6  -6 -19    5.35    1.84
   6  -7 -19   10.22    2.30
   5  -7 -19   16.49    2.34
  -5   7  19   16.50    1.27
   4  -7 -19   11.04    2.05
  -4   7  19    8.98    0.92
   3  -7 -19    5.03    1.64
  -3   7  19    5.09    0.77
   2  -7 -19   56.06    3.41
  -2   7  19   54.55    2.10
  -1  -7  19    5.62    0.66
   1  -7 -19    5.05    0.87
   1  -7 -19    4.11    1.68
   0  -7  19   14.72    1.13
   0  -7 -19   14.15    2.13
   0  -7 -19   14.91    1.25
  -1  -7 -19   16.21    1.95
   1  -7  19   18.53    1.33
  -1  -7 -19   17.66    1.46
  -2  -7 -19   14.36    1.76
   2  -7  19   19.04    1.48
  -2  -7 -19   15.52    1.05
  -3  -7 -19    5.53    1.33
  -3   7 -19    6.87    1.20
  -4  -7 -19    1.32    1.25
  -4   7 -19    0.28    1.00
  -5  -7 -19   12.40    2.17
  -5   7 -19   16.39    1.94
   6  -8 -19   -0.86    1.96
   5  -8 -19    1.96    1.92
  -5   8  19   -0.23    0.69
   4  -8 -19   13.99    2.22
  -4   8  19   17.29    1.33
   3  -8 -19   17.62    2.17
  -3   8  19   17.72    1.28
   2  -8 -19   29.10    1.79
   2  -8 -19   23.28    2.62
  -2   8  19   27.19    1.47
   1  -8 -19   88.16    3.12
  -1  -8  19   82.82    2.84
   1  -8 -19   81.62    4.37
   0  -8 -19   83.85    3.13
   0  -8 -19   89.78    4.53
   0  -8  19   85.26    3.00
  -1  -8 -19   11.73    1.73
   1  -8  19    8.02    1.02
  -1  -8 -19    8.55    1.13
   2  -8  19    0.83    0.86
  -2  -8 -19    0.90    0.93
  -2  -8 -19    1.01    0.40
  -3  -8 -19    0.94    1.03
  -3   8 -19    1.05    0.95
  -4   8 -19   14.42    1.68
  -5   8 -19   18.15    2.04
   5  -9 -19    2.16    1.92
  -5   9  19    0.59    0.73
   4  -9 -19   44.24    3.38
  -4   9  19   42.14    2.00
   3  -9 -19   10.03    1.93
  -3   9  19    8.39    0.98
   2  -9 -19   -0.11    1.47
   2  -9 -19    0.01    0.92
  -1  -9  19   29.05    1.44
   1  -9 -19   26.21    2.62
   1  -9 -19   31.18    1.85
   0  -9  19   50.22    2.12
   0  -9 -19   49.82    2.27
   1  -9  19    3.83    0.91
  -1  -9 -19    3.80    0.94
   2  -9  19    0.78    0.91
  -3   9 -19   57.82    2.82
  -4   9 -19    0.75    1.05
  -4  10  19    0.77    0.77
  -3  10  19   21.90    1.56
   2 -10 -19    7.49    1.24
   1 -10 -19   -0.14    0.90
   0 -10  19    2.45    0.83
   0 -10 -19    3.68    0.95
  -1 -10 -19   22.88    1.55
   1 -10  19   20.78    1.64
   2 -10  19   41.14    2.27
   3 -10  19    3.86    1.20
  -4  10 -19   17.96    1.83
  -4  11  19    7.82    1.07
  -3  11  19    0.67    0.81
   2 -11 -19   60.28    2.85
   1 -11 -19    4.28    1.10
   0 -11  19    0.78    0.82
   0 -11 -19   -0.35    0.77
   1 -11  19   66.53    2.85
  -1 -11 -19   68.14    2.52
   2 -11  19    3.08    1.14
   3 -11  19    4.42    1.31
   3 -12 -19    0.97    1.21
   2 -12 -19    2.29    1.11
   1 -12 -19   14.52    1.49
   0 -12 -19   18.80    1.53
   0 -12  19   17.11    1.38
   1 -12  19   -0.80    0.96
   2 -12  19    3.54    1.25
   0 -13 -19   22.68    1.48
   7   0 -20   23.25    2.59
   6   0 -20   44.92    2.89
   5   0 -20   26.31    2.20
   4   0 -20   16.20    1.66
   3   0 -20   48.92    2.58
  -3   0  20   51.83    1.67
   1   0 -20    0.52    0.90
   1   0 -20    0.77    1.10
  -1   0  20    0.69    0.38
   0   0 -20  178.77    6.91
   0   0 -20  188.68    5.43
   0   0  20  187.41    5.38
   1   0  20   37.88    1.78
  -1   0 -20   38.93    1.66
  -1   0 -20   36.06    2.26
   2   0  20   36.27    1.77
  -2   0 -20   35.38    2.16
  -2   0 -20   34.61    1.70
  -3   0 -20  121.78    4.04
  -3   0 -20  113.73    4.87
  -4   0 -20    4.73    1.21
  -4   0 -20    6.76    0.90
  -5   0 -20    8.50    1.59
  -6   0 -20    1.75    1.37
   7  -1 -20   -0.51    1.60
   7   1 -20   -1.15    1.48
   6  -1 -20    3.01    1.53
   6   1 -20    3.17    1.46
   5  -1 -20   18.71    2.11
   5   1 -20   19.00    2.07
   4  -1 -20   32.60    2.16
   4   1 -20   32.36    2.25
  -3  -1  20   41.34    1.39
   3  -1 -20   46.55    2.49
   3   1 -20   42.91    2.32
  -3   1  20   43.00    1.51
  -2  -1  20    7.04    0.62
   2  -1 -20    6.24    1.16
   2  -1 -20    5.13    1.15
   2   1 -20    6.86    1.12
  -2   1  20    7.56    0.65
   2   1 -20    5.03    1.06
   1  -1 -20  154.86    6.33
   1  -1 -20  165.10    6.48
  -1  -1  20  166.48    4.82
   1   1 -20  168.21    6.09
  -1   1  20  165.60    4.81
   1   1 -20  168.71    6.42
   0  -1 -20    7.91    0.73
   0  -1 -20    4.93    1.51
   0  -1  20    7.65    0.67
   0   1  20    7.25    0.69
   0   1 -20    7.47    1.35
   0   1 -20    7.66    1.09
   0   1 -20    8.52    0.75
  -1  -1 -20   24.32    1.29
  -1  -1 -20   20.08    1.91
   1  -1  20   20.75    1.10
   1   1  20   23.01    1.31
  -1   1 -20   21.12    1.55
  -1   1 -20   24.64    1.22
  -2  -1 -20   46.80    2.78
  -2  -1 -20   43.83    2.01
   2  -1  20   46.66    2.15
  -2   1 -20   43.59    1.92
   2   1  20   47.02    2.12
  -2   1 -20   45.77    2.29
  -3  -1 -20   20.32    1.36
  -3  -1 -20   17.75    1.94
  -3   1 -20   19.01    1.38
  -3   1 -20   16.65    1.50
  -4  -1 -20   26.71    2.39
  -4  -1 -20   25.43    1.18
  -4   1 -20   25.24    1.78
  -4   1 -20   27.28    1.91
  -5  -1 -20    1.89    1.41
  -5   1 -20    4.30    1.22
  -6  -1 -20   16.99    2.52
  -6   1 -20   16.69    2.04
   7  -2 -20    4.69    1.89
   6  -2 -20    6.14    1.75
   5  -2 -20    0.96    1.42
   5   2 -20   -0.34    1.15
   4  -2 -20   21.22    2.15
   4   2 -20   19.61    1.92
  -4   2  20   20.48    0.92
   3  -2 -20   30.63    2.09
  -3   2  20   32.16    1.28
   3   2 -20   33.66    2.00
  -2  -2  20   91.24    2.78
   2  -2 -20   88.97    4.08
   2  -2 -20   90.25    4.00
  -2   2  20   91.72    2.84
   2   2 -20   93.12    3.71
   1  -2 -20  111.63    4.86
  -1  -2  20  113.48    3.46
   1  -2 -20  108.98    4.91
   1   2 -20  119.82    4.38
  -1   2  20  115.74    3.46
   1   2 -20  114.07    4.72
   0  -2  20    5.95    0.63
   0  -2 -20    6.28    0.71
   0  -2 -20    4.56    1.55
   0   2 -20    7.13    0.95
   0   2 -20    6.46    1.29
   0   2  20    5.60    0.59
  -1  -2 -20   18.76    1.23
   1  -2  20   19.46    1.09
  -1  -2 -20   18.41    2.02
   1   2  20   19.32    1.24
  -1   2 -20   20.57    1.10
  -1   2 -20   21.54    1.33
  -2  -2 -20    5.16    1.27
  -2  -2 -20    4.78    0.83
  -2   2 -20    3.94    0.73
  -3  -2 -20    1.30    0.59
  -3  -2 -20    0.40    1.12
  -3   2 -20    1.85    0.73
  -3   2 -20    0.32    0.62
  -4  -2 -20    8.33    1.82
  -4   2 -20    8.66    1.31
  -4   2 -20    8.11    1.14
  -5  -2 -20   66.64    4.26
  -5   2 -20   63.08    3.20
  -6  -2 -20    8.78    2.21
  -6   2 -20    8.53    1.49
   7  -3 -20   -0.70    1.77
   6  -3 -20   37.21    3.06
   5  -3 -20   13.66    1.95
   4  -3 -20   14.42    1.85
  -4   3  20   13.73    0.87
   3  -3 -20   41.26    2.63
  -3   3  20   42.37    1.58
   2  -3 -20   46.46    2.73
   2  -3 -20   46.83    2.66
  -2  -3  20   45.46    1.57
  -2   3  20   46.98    1.68
  -1  -3  20    9.23    0.74
   1  -3 -20    9.39    1.78
   1  -3 -20    9.31    0.85
   1   3 -20   10.22    1.30
  -1   3  20   10.01    0.72
   0  -3 -20   21.09    1.21
   0  -3 -20   23.75    2.45
   0  -3  20   22.90    1.14
   0   3 -20   22.51    1.94
   1  -3  20  108.63    3.40
  -1  -3 -20  100.74    3.52
  -1  -3 -20  109.29    5.04
  -1   3 -20  103.42    3.33
  -1   3 -20  105.11    3.86
   1   3  20  108.09    4.09
  -2  -3 -20   26.19    2.28
  -2  -3 -20   27.75    1.60
  -2   3 -20   26.44    1.43
  -2   3 -20   26.05    1.42
  -3  -3 -20   59.05    3.65
  -3  -3 -20   56.98    2.17
  -3   3 -20   61.55    2.43
  -3   3 -20   61.29    2.60
  -4  -3 -20   69.56    4.34
  -4   3 -20   71.12    3.18
  -4   3 -20   76.69    3.42
  -5  -3 -20    0.50    1.55
  -5   3 -20    1.35    0.63
  -5   3 -20    1.77    0.94
  -6  -3 -20   -2.54    1.55
  -6   3 -20    0.45    1.09
   7  -4 -20    8.11    2.22
   6  -4 -20   18.32    2.42
   5  -4 -20    8.56    1.79
   4  -4 -20   22.84    2.21
  -4   4  20   21.91    1.17
   3  -4 -20    6.35    1.39
  -3   4  20    6.36    0.65
   2  -4 -20    4.89    1.35
  -1  -4  20   13.48    0.85
   1  -4 -20   12.43    1.97
   1  -4 -20   12.42    1.04
  -1   4  20   13.28    0.86
   0  -4  20   47.01    1.77
   0  -4 -20   42.94    1.82
   0  -4 -20   42.65    3.24
   0   4 -20   45.48    2.66
  -1  -4 -20   12.40    1.14
   1  -4  20   14.09    1.05
  -1  -4 -20   12.67    1.84
   1   4  20   14.99    1.18
  -2  -4 -20    2.35    0.75
  -2  -4 -20    2.75    1.10
  -2   4 -20    2.51    0.66
  -3  -4 -20   44.73    1.68
  -3  -4 -20   51.27    3.30
  -3   4 -20   54.55    2.28
  -3   4 -20   47.52    2.10
  -4  -4 -20    5.58    1.73
  -4   4 -20    5.17    1.27
  -4   4 -20    5.02    0.96
  -5  -4 -20   -1.01    1.37
  -5   4 -20    1.41    0.79
  -5   4 -20   -0.58    0.83
  -6  -4 -20   -1.54    1.51
  -6   4 -20    0.39    1.09
   7  -5 -20   -0.18    1.97
   6  -5 -20    4.86    1.94
   5  -5 -20    2.75    1.75
  -5   5  20    0.81    0.48
   4  -5 -20  120.21    5.24
  -4   5  20  113.64    3.67
   3  -5 -20    0.29    1.40
  -3   5  20    0.69    0.51
   2  -5 -20   45.52    3.01
  -2  -5  20   46.53    1.59
  -2   5  20   49.28    1.80
   1  -5 -20  129.17    5.79
  -1  -5  20  130.32    3.98
   1  -5 -20  131.30    4.15
  -1   5  20  134.44    4.01
   0  -5  20    1.97    0.55
   0  -5 -20    1.32    0.63
   0  -5 -20    0.28    1.59
   0   5 -20    2.72    1.12
  -1  -5 -20   63.10    2.49
  -1  -5 -20   60.08    3.49
   1  -5  20   63.44    2.33
  -2  -5 -20   19.66    1.40
  -2  -5 -20   18.63    2.07
  -2   5 -20   21.77    1.25
  -3  -5 -20   72.44    4.10
  -3   5 -20   84.07    2.91
  -4  -5 -20   -0.55    1.17
  -4   5 -20    0.78    1.03
  -5  -5 -20   15.43    2.39
  -5   5 -20   16.11    1.68
  -6  -5 -20   26.19    3.10
   6  -6 -20    3.36    1.94
   5  -6 -20    5.53    1.98
  -5   6  20    5.31    0.77
   4  -6 -20    2.94    1.71
  -4   6  20    3.47    0.68
   3  -6 -20    9.38    1.86
  -3   6  20    9.35    0.87
   2  -6 -20   38.00    2.89
  -2   6  20   35.15    1.56
  -1  -6  20    2.77    0.55
   1  -6 -20   -0.07    1.61
   1  -6 -20    3.79    0.78
   0  -6 -20   -1.65    1.49
   0  -6 -20    1.62    0.68
   0  -6  20    1.08    0.57
   1  -6  20    4.00    0.72
  -1  -6 -20    7.09    1.60
  -1  -6 -20    5.97    0.96
  -2  -6 -20    1.58    1.02
   2  -6  20    1.86    0.77
  -2  -6 -20    1.48    0.62
  -2   6 -20    1.11    0.58
  -3  -6 -20    5.97    1.41
  -3   6 -20    6.33    1.17
  -4  -6 -20    1.05    1.27
  -4   6 -20    1.50    1.08
  -5  -6 -20   10.77    2.07
  -5   6 -20   14.28    1.76
  -6  -6 -20   -1.50    1.36
   6  -7 -20   49.81    3.81
   5  -7 -20    0.31    1.83
  -5   7  20    0.80    0.66
   4  -7 -20   48.01    3.46
  -4   7  20   50.63    2.09
   3  -7 -20    8.75    1.86
  -3   7  20    8.05    0.88
   2  -7 -20   22.54    2.57
  -2   7  20   22.36    1.28
   1  -7 -20   21.45    2.46
   1  -7 -20   21.75    1.45
  -1  -7  20   21.46    1.18
   0  -7  20    6.48    0.82
   0  -7 -20    5.37    1.79
   0  -7 -20    6.45    0.92
  -1  -7 -20  179.96    5.67
  -1  -7 -20  171.02    7.21
   1  -7  20  171.49    5.43
  -2  -7 -20    0.61    0.51
  -2  -7 -20    0.91    0.94
   2  -7  20    0.48    0.77
  -3  -7 -20   25.24    2.36
  -3   7 -20   28.69    2.03
  -4  -7 -20    0.94    1.20
  -4   7 -20    1.39    1.07
  -5  -7 -20    0.46    1.34
  -5   7 -20    4.41    1.37
   6  -8 -20    2.70    2.12
   5  -8 -20   -0.55    1.89
  -5   8  20   -0.14    0.69
   4  -8 -20    1.10    1.80
  -4   8  20    1.43    0.72
   3  -8 -20    0.03    1.63
  -3   8  20    2.26    0.71
   2  -8 -20    0.14    0.83
   2  -8 -20   -0.55    1.53
  -2   8  20    0.16    0.62
   1  -8 -20    1.06    0.82
   1  -8 -20   -0.77    1.50
  -1  -8  20    0.97    0.56
   0  -8  20    1.63    0.69
   0  -8 -20   -0.04    1.44
   0  -8 -20    0.60    0.71
  -1  -8 -20    4.81    1.01
  -1  -8 -20    5.60    1.43
   1  -8  20    5.56    0.94
   2  -8  20    0.32    0.83
  -2  -8 -20    0.51    0.91
  -2  -8 -20    0.45    0.42
  -3  -8 -20    0.92    1.01
  -3   8 -20    0.00    0.94
  -4   8 -20    1.00    1.06
  -5   8 -20    9.65    1.66
   5  -9 -20   -0.25    1.86
  -5   9  20   -0.54    0.73
   4  -9 -20   11.18    2.16
  -4   9  20    9.04    1.04
   3  -9 -20    3.77    1.70
  -3   9  20    2.42    0.79
   2  -9 -20   14.91    2.09
   2  -9 -20   17.60    1.53
   1  -9 -20   18.92    1.65
   1  -9 -20   18.65    2.19
  -1  -9  20   20.68    1.23
   0  -9  20    0.82    0.68
   0  -9 -20    0.91    0.80
   0  -9 -20    1.04    1.36
   1  -9  20   50.28    2.35
  -1  -9 -20   54.89    2.44
   2  -9  20    2.81    1.03
  -3   9 -20   19.74    1.90
  -4   9 -20    1.26    1.11
  -4  10  20    1.47    0.78
  -3  10  20    7.42    1.00
   2 -10 -20    0.69    1.00
   1 -10 -20    5.42    1.11
   0 -10 -20    0.72    0.80
   0 -10  20   -0.16    0.75
   1 -10  20    3.94    0.98
  -1 -10 -20    4.20    0.89
   2 -10  20    0.24    0.93
   3 -10  20    7.46    1.38
  -4  10 -20    0.77    1.15
  -3  11  20    4.35    0.95
   2 -11 -20    1.04    1.09
   1 -11 -20   12.48    1.36
   0 -11  20    2.90    0.90
   0 -11 -20    1.29    0.85
  -1 -11 -20    8.53    0.93
   1 -11  20    7.42    1.19
   2 -11  20    2.79    1.14
   3 -11  20    3.29    1.25
   2 -12 -20    2.00    1.16
   1 -12 -20    2.32    1.07
   0 -12  20    6.52    0.95
   0 -12 -20    7.32    1.04
   1 -12  20    2.14    1.08
   2 -12  20   -0.84    1.07
   7   0 -21   -1.20    1.54
   6   0 -21    3.09    1.54
   5   0 -21    0.77    1.32
   4   0 -21   -0.26    1.16
  -3   0  21    0.16    0.31
   3   0 -21    0.47    1.06
   2   0 -21    0.16    1.06
   2   0 -21   -0.39    0.88
  -2   0  21    0.33    0.36
   1   0 -21    1.54    0.99
   1   0 -21    1.99    1.17
  -1   0  21    2.30    0.47
   0   0 -21    0.11    0.47
   0   0  21    0.02    0.39
   0   0 -21   -0.10    1.00
  -1   0 -21    2.57    0.99
  -1   0 -21    3.99    0.68
  -2   0 -21   -0.45    0.76
   2   0  21    0.48    0.55
  -2   0 -21   -0.12    0.55
  -3   0 -21   -0.45    0.62
  -3   0 -21    0.85    0.90
  -4   0 -21    0.24    0.96
  -4   0 -21    0.29    0.62
  -5   0 -21   -0.87    1.09
  -6   0 -21   -1.52    1.21
   7  -1 -21    0.32    1.69
   7   1 -21   -1.37    1.58
   6  -1 -21   29.83    2.65
   6   1 -21   28.16    2.51
   5  -1 -21    3.79    1.42
   5   1 -21    2.55    1.35
   4  -1 -21   52.93    2.96
   4   1 -21   52.75    2.81
   3  -1 -21   16.12    1.66
  -3  -1  21   13.70    0.69
  -3   1  21   13.94    0.82
   3   1 -21   15.84    1.56
   2  -1 -21    4.90    1.29
  -2  -1  21    4.75    0.52
   2  -1 -21    3.97    1.16
  -2   1  21    4.21    0.52
   2   1 -21    5.39    1.15
   1  -1 -21  143.93    5.76
  -1  -1  21  142.75    4.21
   1  -1 -21  133.77    5.52
   1   1 -21  142.64    5.67
   1   1 -21  143.96    5.35
  -1   1  21  138.33    4.19
   0  -1 -21    0.14    1.22
   0  -1 -21    1.26    0.50
   0  -1  21    1.83    0.48
   0   1 -21    1.15    0.85
   0   1  21    0.90    0.42
  -1  -1 -21  146.29    5.83
  -1  -1 -21  138.92    4.43
   1  -1  21  138.82    4.29
  -1   1 -21  139.57    5.37
  -1   1 -21  143.10    4.34
  -2  -1 -21    9.46    1.05
  -2  -1 -21    9.58    1.53
  -2   1 -21    7.83    0.89
  -2   1 -21   10.27    1.19
  -3  -1 -21   42.97    2.84
  -3  -1 -21   42.84    2.03
  -3   1 -21   42.10    2.04
  -3   1 -21   40.81    2.32
  -4  -1 -21   32.09    2.69
  -4  -1 -21   29.59    1.37
  -4   1 -21   31.55    2.01
  -4   1 -21   30.43    2.10
  -5  -1 -21   -0.75    1.25
  -5   1 -21    1.37    1.07
  -6  -1 -21   37.09    3.50
  -6   1 -21   37.46    2.86
   7  -2 -21   -1.59    1.69
   6  -2 -21   -1.25    1.53
   5  -2 -21   18.54    2.10
   5   2 -21   18.80    1.93
   4  -2 -21    6.06    1.48
  -4   2  21    5.45    0.54
   4   2 -21    7.11    1.36
   3  -2 -21    6.07    1.41
  -3   2  21    6.09    0.59
   3   2 -21    7.62    1.24
  -2  -2  21    2.66    0.44
   2  -2 -21    3.77    1.14
   2  -2 -21    2.13    1.29
  -2   2  21    2.83    0.48
   2   2 -21    3.79    1.03
   1  -2 -21   27.48    2.31
  -1  -2  21   31.80    1.31
   1   2 -21   31.34    2.11
  -1   2  21   31.05    1.29
   1   2 -21   33.40    1.84
   0  -2  21    0.64    0.44
   0  -2 -21   -0.29    1.39
   0  -2 -21    1.13    0.53
   0   2 -21    0.41    0.96
   0   2  21    1.17    0.42
   0   2 -21    0.75    0.73
  -1  -2 -21   14.91    1.89
   1  -2  21   17.11    1.04
  -1  -2 -21   14.37    1.18
   1   2  21   14.95    1.14
  -1   2 -21   16.33    1.23
  -1   2 -21   15.45    1.03
  -2  -2 -21   11.55    1.81
  -2  -2 -21   14.01    1.33
  -2   2 -21   14.07    1.21
  -2   2 -21   11.83    1.14
  -3  -2 -21   -0.53    1.09
  -3  -2 -21    0.78    0.60
  -3   2 -21    0.77    0.66
  -3   2 -21    0.90    0.74
  -4  -2 -21    5.49    1.56
  -4   2 -21    5.56    1.04
  -4   2 -21    4.37    1.13
  -5  -2 -21   -0.12    1.35
  -5   2 -21    1.43    1.02
  -6  -2 -21   -0.18    1.71
  -6   2 -21    0.99    1.13
   7  -3 -21   12.26    2.34
   6  -3 -21   27.97    2.88
   5  -3 -21    1.22    1.59
   4  -3 -21    2.83    1.53
  -4   3  21    2.38    0.50
   3  -3 -21    9.11    1.60
  -3   3  21    7.30    0.68
  -2  -3  21   31.79    1.21
   2  -3 -21   29.61    2.25
  -2   3  21   31.23    1.31
  -1  -3  21   66.02    2.20
   1  -3 -21   62.15    3.61
  -1   3  21   69.14    2.21
   1   3 -21   61.89    3.11
   0  -3  21   20.82    1.12
   0  -3 -21   19.89    2.31
   0  -3 -21   20.62    1.18
   0   3 -21   19.60    1.91
  -1  -3 -21  110.97    5.10
  -1  -3 -21  104.65    3.57
   1  -3  21  104.38    3.43
   1   3  21  112.29    4.15
  -1   3 -21  103.13    3.37
  -1   3 -21  103.39    3.89
  -2  -3 -21    8.90    1.04
  -2  -3 -21    7.02    1.57
  -2   3 -21    6.20    0.83
  -2   3 -21    8.72    0.93
  -3  -3 -21   11.19    0.98
  -3  -3 -21   10.87    1.80
  -3   3 -21   13.34    1.19
  -3   3 -21   12.38    1.22
  -4  -3 -21   30.06    2.97
  -4   3 -21   31.12    2.29
  -4   3 -21   28.65    1.90
  -5  -3 -21    4.67    1.83
  -5   3 -21    9.23    0.98
  -5   3 -21    7.57    1.25
  -6  -3 -21   18.25    2.91
  -6   3 -21   22.38    2.08
   7  -4 -21    4.58    2.10
   6  -4 -21   18.09    2.39
   5  -4 -21    8.56    1.91
   4  -4 -21    4.77    1.50
  -4   4  21    3.80    0.62
   3  -4 -21  146.57    5.87
  -3   4  21  141.07    4.33
   2  -4 -21    3.80    1.50
  -2  -4  21    3.30    0.45
  -2   4  21    3.74    0.58
   1  -4 -21    2.90    0.69
   1  -4 -21    2.05    1.48
  -1  -4  21    2.65    0.51
  -1   4  21    2.69    0.51
   0  -4 -21   25.12    2.76
   0  -4 -21   28.54    1.46
   0  -4  21   29.30    1.37
   0   4 -21   28.02    2.26
   1  -4  21   10.84    1.04
  -1  -4 -21    9.65    1.71
  -1  -4 -21   10.91    1.06
  -2  -4 -21    1.24    0.71
  -2  -4 -21    1.04    1.17
  -2   4 -21    1.83    0.64
  -3  -4 -21   19.14    1.02
  -3  -4 -21   22.99    2.23
  -3   4 -21   20.32    1.38
  -4  -4 -21   54.83    3.86
  -4   4 -21   63.72    3.20
  -4   4 -21   57.65    2.71
  -5  -4 -21    3.81    1.75
  -5   4 -21    8.66    1.23
  -5   4 -21    4.90    1.10
  -6  -4 -21    1.25    1.71
  -6   4 -21    2.02    1.21
   6  -5 -21   -0.49    1.86
   5  -5 -21    2.43    1.73
  -5   5  21    3.12    0.58
   4  -5 -21   46.26    3.22
  -4   5  21   40.37    1.74
   3  -5 -21    2.09    1.55
  -3   5  21    1.47    0.54
   2  -5 -21   30.19    2.60
  -2  -5  21   28.38    1.16
  -2   5  21   30.79    1.38
  -1  -5  21   31.41    1.36
   1  -5 -21   27.71    2.61
   1  -5 -21   31.69    1.58
  -1   5  21   32.56    1.41
   0  -5 -21    2.27    1.66
   0  -5  21    2.33    0.59
   0  -5 -21    2.90    0.71
  -1  -5 -21    3.12    0.78
   1  -5  21    2.55    0.66
  -1  -5 -21    2.03    1.25
  -2  -5 -21    2.02    0.75
  -2  -5 -21    2.45    1.25
  -2   5 -21    1.83    0.64
  -3  -5 -21   14.75    2.00
  -3   5 -21   18.03    1.32
  -4  -5 -21   -0.83    1.16
  -4   5 -21    0.04    1.02
  -5  -5 -21   12.93    2.23
  -5   5 -21   16.12    1.75
  -6  -5 -21    6.23    2.02
   6  -6 -21    0.35    1.88
   5  -6 -21   35.56    3.21
  -5   6  21   35.32    1.65
   4  -6 -21    0.77    1.70
  -4   6  21   -0.09    0.58
   3  -6 -21   27.94    2.73
  -3   6  21   25.40    1.38
   2  -6 -21    4.86    1.67
  -1  -6  21   76.36    2.55
   1  -6 -21   75.41    2.76
   1  -6 -21   72.70    4.13
   0  -6 -21   13.47    2.19
   0  -6  21   12.69    1.06
   0  -6 -21   14.40    1.22
  -1  -6 -21   21.48    2.43
   1  -6  21   21.94    1.40
  -1  -6 -21   21.89    1.55
   2  -6  21  131.30    4.19
  -2  -6 -21  117.22    5.53
  -2  -6 -21  121.68    4.09
  -2   6 -21  123.49    3.96
  -3  -6 -21    7.95    1.56
  -3   6 -21   10.10    1.36
  -4  -6 -21    2.45    1.33
  -4   6 -21    0.56    1.06
  -5  -6 -21    1.51    1.41
  -5   6 -21    3.37    1.24
  -6  -6 -21    4.10    2.00
   6  -7 -21    9.74    2.34
   5  -7 -21   -0.02    1.90
  -5   7  21    1.20    0.67
   4  -7 -21   26.71    3.10
  -4   7  21   25.21    1.49
   3  -7 -21    3.82    1.76
  -3   7  21    4.09    0.74
   2  -7 -21    3.61    1.61
  -2   7  21    2.85    0.69
  -1  -7  21   26.95    1.34
   1  -7 -21   25.63    1.61
   0  -7 -21   22.57    2.58
   0  -7 -21   23.78    1.52
   0  -7  21   22.77    1.38
  -1  -7 -21   21.70    1.61
   1  -7  21   19.86    1.44
  -1  -7 -21   19.52    2.31
   2  -7  21    2.04    0.87
  -2  -7 -21    2.77    0.63
  -2  -7 -21    2.21    1.12
  -3  -7 -21   23.27    2.26
  -3   7 -21   25.93    2.01
  -4  -7 -21   -0.16    1.16
  -4   7 -21    1.97    1.07
  -5  -7 -21    0.58    1.30
  -5   7 -21    3.67    1.35
   6  -8 -21   22.43    3.01
   5  -8 -21   10.91    2.33
  -5   8  21    8.01    1.02
   4  -8 -21    8.16    2.09
  -4   8  21    8.17    0.99
   3  -8 -21   95.10    4.71
  -3   8  21   87.36    3.15
   2  -8 -21    8.49    1.27
   2  -8 -21    6.72    1.80
  -2   8  21    6.65    0.87
   1  -8 -21   -1.19    1.50
   1  -8 -21    0.26    0.81
  -1  -8  21    0.86    0.59
   0  -8 -21   27.21    2.81
   0  -8 -21   28.62    1.70
   0  -8  21   25.79    1.53
  -1  -8 -21   13.74    1.94
   1  -8  21   12.35    1.26
  -1  -8 -21   15.47    1.40
   2  -8  21    1.33    0.91
  -2  -8 -21    1.36    0.48
  -2  -8 -21    2.10    1.05
  -3  -8 -21   20.92    2.31
  -3   8 -21   23.34    1.96
  -4   8 -21   37.05    2.50
   5  -9 -21    9.31    2.26
  -5   9  21    7.51    1.05
   4  -9 -21    1.13    1.85
  -4   9  21    1.22    0.76
   3  -9 -21    1.72    1.63
  -3   9  21    0.65    0.70
   2  -9 -21   38.69    2.18
   2  -9 -21   38.52    2.99
   1  -9 -21   11.58    1.25
   1  -9 -21    6.04    1.74
  -1  -9  21   11.51    1.02
   0  -9 -21    1.63    0.83
   0  -9  21    0.69    0.70
   0  -9 -21    2.97    1.48
   1  -9  21   56.78    2.53
  -1  -9 -21   59.20    2.60
   2  -9  21   28.89    1.96
  -3   9 -21    0.70    1.00
  -4   9 -21    5.99    1.34
  -4  10  21    0.72    0.77
  -3  10  21    1.72    0.81
   2 -10 -21   12.06    1.45
   1 -10 -21   56.99    2.61
   0 -10  21   -0.17    0.73
   0 -10 -21    1.62    0.83
   1 -10  21   12.37    1.32
  -1 -10 -21   11.56    1.19
   2 -10  21   23.04    1.88
   3 -10  21    8.42    1.41
  -3  11  21    7.12    1.05
   2 -11 -21    4.99    1.23
   1 -11 -21   34.91    2.18
   0 -11  21   23.88    1.62
   0 -11 -21   21.05    1.69
   1 -11  21    7.29    1.20
  -1 -11 -21    7.65    0.91
   2 -11  21    2.07    1.10
   3 -11  21   42.49    2.57
   2 -12 -21    9.21    1.45
   1 -12 -21    4.96    1.15
   0 -12 -21    1.28    0.81
   0 -12  21    1.66    0.77
   1 -12  21    0.42    0.99
   7   0 -22   53.94    3.53
   6   0 -22    2.35    1.57
   5   0 -22   37.43    2.78
   4   0 -22    9.32    1.55
   3   0 -22  133.44    5.42
  -3   0  22  144.99    4.11
  -2   0  22    4.59    0.53
   2   0 -22    3.88    1.13
   1   0 -22   45.06    2.54
  -1   0  22   44.02    1.65
   1   0 -22   43.00    2.60
   0   0 -22  120.91    3.68
   0   0  22  119.48    3.63
   0   0 -22  110.85    4.74
  -1   0 -22   44.60    2.59
  -1   0 -22   48.02    1.96
  -2   0 -22   83.65    3.84
  -2   0 -22   85.87    3.10
  -3   0 -22   10.42    1.49
  -3   0 -22   12.14    1.26
  -4   0 -22   20.20    1.58
  -4   0 -22   21.82    1.98
  -5   0 -22    3.90    1.41
  -6   0 -22   -2.17    1.22
   7  -1 -22    0.15    1.76
   7   1 -22   -0.29    1.73
   6  -1 -22   20.24    2.23
   6   1 -22   18.82    2.16
   5  -1 -22    6.42    1.68
   5   1 -22    5.56    1.53
   4  -1 -22    6.87    1.52
   4   1 -22    8.91    1.48
   3  -1 -22   34.09    2.26
  -3  -1  22   35.84    1.29
  -3   1  22   38.73    1.41
   3   1 -22   37.81    2.31
  -2  -1  22    2.03    0.42
   2  -1 -22    2.98    1.24
   2   1 -22    2.50    1.05
   1  -1 -22   25.88    2.07
   1  -1 -22   21.66    2.18
  -1  -1  22   24.80    1.17
  -1   1  22   25.17    1.15
   1   1 -22   27.55    1.99
   1   1 -22   24.96    1.83
   0  -1 -22    7.25    1.46
   0  -1  22    9.47    0.83
   0  -1 -22    9.00    0.87
   0   1  22    9.18    0.76
   0   1 -22    9.24    1.20
  -1  -1 -22   34.57    2.43
  -1  -1 -22   37.71    1.72
   1  -1  22   37.80    1.59
  -1   1 -22   39.23    1.67
  -1   1 -22   39.39    2.14
  -2  -1 -22    9.76    1.09
  -2  -1 -22    8.27    1.41
  -2   1 -22   10.47    1.21
  -2   1 -22    6.97    0.91
  -3  -1 -22    0.39    1.12
  -3  -1 -22    0.15    0.68
  -3   1 -22   -0.56    0.67
  -3   1 -22    0.70    0.79
  -4  -1 -22   25.03    2.56
  -4  -1 -22   26.06    1.39
  -4   1 -22   31.24    2.02
  -4   1 -22   29.06    2.08
  -5  -1 -22    9.99    1.94
  -5   1 -22    9.59    1.52
  -6  -1 -22   -1.33    1.51
  -6   1 -22    0.58    1.22
   7  -2 -22   -0.49    1.72
   6  -2 -22    9.57    1.98
   5  -2 -22  104.61    4.79
   4  -2 -22   33.23    2.60
   4   2 -22   33.25    2.41
  -4   2  22   29.75    1.23
   3  -2 -22   92.59    4.19
  -3   2  22   94.36    2.97
   3   2 -22   96.69    4.01
   2  -2 -22   78.95    3.86
  -2  -2  22   77.93    2.51
   2  -2 -22   81.81    3.76
   2   2 -22   81.11    3.37
  -2   2  22   77.75    2.57
   1  -2 -22    2.60    1.45
  -1  -2  22    3.75    0.56
  -1   2  22    4.00    0.56
   1   2 -22    5.68    0.98
   1   2 -22    4.12    1.12
   0  -2 -22   13.38    1.92
   0  -2  22   13.81    0.95
   0  -2 -22   13.61    1.02
   0   2  22   14.65    0.92
   0   2 -22   14.02    1.27
   1  -2  22   21.82    1.21
  -1  -2 -22   20.44    2.10
  -1  -2 -22   20.08    1.35
  -1   2 -22   21.05    1.22
  -1   2 -22   21.78    1.43
  -2  -2 -22  103.70    3.69
  -2  -2 -22  105.41    5.00
  -2   2 -22   99.17    3.48
  -2   2 -22  100.84    3.99
  -3  -2 -22   51.76    2.27
  -3  -2 -22   50.17    3.33
  -3   2 -22   58.79    2.66
  -3   2 -22   54.42    2.40
  -4  -2 -22   25.99    2.90
  -4   2 -22   23.00    1.80
  -4   2 -22   26.01    2.10
  -5  -2 -22   20.60    2.83
  -5   2 -22   20.72    2.01
  -6  -2 -22    4.23    2.09
  -6   2 -22    5.81    1.43
   7  -3 -22    7.99    2.22
   6  -3 -22    1.19    1.76
   5  -3 -22   14.86    2.10
   4  -3 -22    1.47    1.53
  -4   3  22    1.20    0.48
   3  -3 -22   14.43    1.86
  -3   3  22   15.51    0.96
  -2  -3  22    1.54    0.40
   2  -3 -22    1.25    1.33
  -2   3  22    1.55    0.46
   1  -3 -22  185.44    7.48
  -1  -3  22  194.78    5.61
  -1   3  22  193.60    5.61
   0  -3  22   11.78    0.93
   0  -3 -22    8.41    1.79
   0  -3 -22   11.42    0.99
   1  -3  22    2.81    0.60
  -1  -3 -22    4.45    0.76
  -1  -3 -22    1.42    1.44
  -1   3 -22    3.24    0.60
  -1   3 -22    3.70    0.64
  -2  -3 -22  129.33    4.39
  -2  -3 -22  129.50    5.92
  -2   3 -22  123.22    4.70
  -2   3 -22  129.60    4.16
  -3  -3 -22    5.78    0.77
  -3  -3 -22    6.59    1.64
  -3   3 -22    4.88    0.89
  -3   3 -22    6.42    0.93
  -4  -3 -22   -0.02    1.41
  -4   3 -22    0.31    0.82
  -4   3 -22    1.41    1.08
  -5  -3 -22    3.21    1.82
  -5   3 -22    3.54    1.09
  -5   3 -22    3.15    0.73
  -6  -3 -22   64.45    4.72
  -6   3 -22   63.45    3.43
   7  -4 -22   20.89    2.77
   6  -4 -22    7.38    2.04
   5  -4 -22    5.64    1.90
   4  -4 -22    5.97    1.69
  -4   4  22    5.99    0.72
   3  -4 -22   27.21    2.55
  -3   4  22   26.64    1.30
   2  -4 -22   22.51    2.14
  -2  -4  22   20.56    0.99
  -2   4  22   21.43    1.11
   1  -4 -22   19.77    1.28
   1  -4 -22   18.64    2.15
  -1  -4  22   22.96    1.13
  -1   4  22   23.28    1.12
   0  -4 -22   88.05    3.01
   0  -4 -22   88.30    4.59
   0  -4  22   89.56    2.97
   1  -4  22   41.70    1.81
  -1  -4 -22   41.04    3.07
  -1  -4 -22   38.73    1.91
  -2  -4 -22    9.38    1.77
  -2  -4 -22   14.56    1.35
  -2   4 -22   14.75    1.21
  -3  -4 -22    2.51    0.53
  -3  -4 -22    3.27    1.36
  -3   4 -22    3.11    0.76
  -4  -4 -22    1.13    1.43
  -4   4 -22    5.64    1.38
  -4   4 -22    3.12    0.92
  -5  -4 -22    4.77    1.89
  -5   4 -22    8.86    1.37
  -5   4 -22    5.05    1.12
  -6  -4 -22    0.49    1.72
  -6   4 -22    1.07    1.19
   6  -5 -22   15.81    2.47
   5  -5 -22    2.26    1.87
  -5   5  22    2.07    0.53
   4  -5 -22   -0.42    1.59
  -4   5  22    0.03    0.55
   3  -5 -22   63.04    3.65
  -3   5  22   63.23    2.27
   2  -5 -22    6.21    1.74
  -2  -5  22    5.99    0.57
  -2   5  22    6.59    0.75
  -1  -5  22   11.34    0.91
   1  -5 -22   11.19    2.03
   1  -5 -22   12.58    1.07
  -1   5  22   12.11    0.94
   0  -5  22    9.85    0.98
   0  -5 -22   11.54    1.05
   0  -5 -22    8.27    1.93
  -1  -5 -22   85.47    3.22
   1  -5  22   90.23    3.10
  -1  -5 -22   90.36    4.65
  -2  -5 -22    6.00    0.94
  -2  -5 -22    4.39    1.39
  -2   5 -22    4.27    0.78
  -3  -5 -22   -0.28    1.00
  -3   5 -22    0.39    0.65
  -4  -5 -22   74.20    4.53
  -4   5 -22   86.80    3.86
  -5  -5 -22   -1.03    1.30
  -5   5 -22    2.10    1.12
  -6  -5 -22   13.41    2.51
   6  -6 -22    0.03    1.99
   5  -6 -22   10.52    2.22
  -5   6  22    8.58    0.90
   4  -6 -22   11.00    2.13
  -4   6  22    8.63    0.92
   3  -6 -22    1.56    1.57
  -3   6  22    1.19    0.62
   2  -6 -22    0.97    1.60
  -2   6  22    0.05    0.55
   1  -6 -22    1.58    1.72
   1  -6 -22    5.47    0.90
  -1  -6  22    6.02    0.70
   0  -6 -22    4.54    1.69
   0  -6 -22    6.02    0.90
   0  -6  22    5.38    0.78
  -1  -6 -22    0.36    0.73
   1  -6  22    0.44    0.63
  -1  -6 -22    0.17    1.33
   2  -6  22   12.27    1.17
  -2  -6 -22   12.48    1.20
  -2  -6 -22   15.73    2.01
  -2   6 -22   12.60    1.16
  -3  -6 -22    8.73    1.61
  -4  -6 -22   -0.83    1.13
  -4   6 -22   -0.06    1.03
  -5  -6 -22   -1.60    1.09
  -5   6 -22    1.72    1.14
   6  -7 -22    0.90    2.10
   5  -7 -22    0.45    1.88
  -5   7  22   -0.03    0.63
   4  -7 -22    4.20    1.91
  -4   7  22    5.50    0.85
   3  -7 -22   11.84    2.09
  -3   7  22   10.80    0.99
   2  -7 -22    7.77    1.82
  -2   7  22    7.39    0.89
   1  -7 -22   64.68    2.58
  -1  -7  22   64.24    2.34
   1  -7 -22   63.53    3.85
   0  -7  22    1.23    0.66
   0  -7 -22   -0.19    1.56
   0  -7 -22    1.09    0.76
  -1  -7 -22   27.27    1.76
   1  -7  22   26.97    1.64
  -1  -7 -22   27.62    2.66
  -2  -7 -22   24.51    2.33
   2  -7  22   27.24    1.72
  -2  -7 -22   23.95    1.39
  -3  -7 -22    0.59    1.06
  -3   7 -22    0.88    1.01
  -4  -7 -22   21.36    2.45
  -4   7 -22   27.33    2.25
  -5  -7 -22   -1.89    1.13
  -5   7 -22    1.19    1.13
   5  -8 -22    6.39    2.23
  -5   8  22    4.27    0.89
   4  -8 -22    2.69    1.92
  -4   8  22    0.39    0.73
   3  -8 -22    8.03    1.91
  -3   8  22    6.79    0.92
   2  -8 -22   13.96    2.05
  -2   8  22   11.85    1.11
   1  -8 -22    0.74    1.63
   1  -8 -22    3.74    0.96
  -1  -8  22    4.06    0.71
   0  -8 -22   -1.10    1.42
   0  -8  22    0.01    0.67
   0  -8 -22    0.59    0.77
  -1  -8 -22    5.99    1.57
   1  -8  22    6.76    1.05
  -1  -8 -22    6.48    1.09
  -2  -8 -22    5.56    1.40
  -2  -8 -22    4.91    0.65
   2  -8  22    5.28    1.09
  -3  -8 -22    0.36    1.03
  -3   8 -22   -0.17    0.98
  -4  -8 -22    0.35    1.20
  -4   8 -22    1.24    1.10
   5  -9 -22    4.57    2.16
  -5   9  22    1.47    0.85
   4  -9 -22    0.50    1.78
  -4   9  22   -0.48    0.72
   3  -9 -22   16.49    2.24
  -3   9  22   15.24    1.37
   2  -9 -22    3.27    1.61
   2  -9 -22    3.22    1.08
  -1  -9  22   51.69    2.01
   1  -9 -22   51.44    2.41
   1  -9 -22   46.37    3.37
   0  -9 -22    2.69    1.56
   0  -9  22    1.55    0.78
   0  -9 -22    3.17    0.90
  -1  -9 -22    5.45    1.04
   1  -9  22    5.40    1.05
  -1  -9 -22    8.25    1.65
   2  -9  22    4.06    1.11
  -3   9 -22    5.13    1.22
  -4   9 -22   26.69    2.29
  -4  10  22    2.58    0.86
  -3  10  22   24.62    1.65
   2 -10 -22    6.01    1.24
   1 -10 -22    5.09    1.10
   0 -10 -22   16.45    1.59
   0 -10  22   15.20    1.42
   1 -10  22    7.43    1.14
  -1 -10 -22    6.40    1.01
   2 -10  22   25.77    1.97
   3 -10  22   -0.52    1.01
  -3  11  22   15.26    1.48
   2 -11 -22    0.13    1.11
   1 -11 -22    2.15    1.05
   0 -11  22    9.24    1.12
   0 -11 -22    7.42    1.11
   1 -11  22    4.08    1.10
  -1 -11 -22    3.60    0.77
   2 -11  22    0.51    1.05
   2 -12 -22   -0.21    1.09
   1 -12 -22   12.74    1.40
   0 -12  22   21.83    1.42
   0 -12 -22   22.91    1.63
   1 -12  22    4.27    1.12
   7   0 -23   -2.22    1.62
   6   0 -23   -0.84    1.53
   5   0 -23   -0.24    1.43
   4   0 -23    0.26    1.31
   3   0 -23   -0.75    1.10
  -3   0  23    0.90    0.38
   2   0 -23   -0.73    1.03
  -2   0  23    0.08    0.37
  -1   0  23    2.77    0.52
   1   0 -23    3.61    1.22
   1   0 -23    3.79    1.13
   0   0  23    0.60    0.48
   0   0 -23   -0.97    0.82
   0   0 -23    0.40    0.52
  -1   0 -23    0.52    0.91
  -1   0 -23    1.37    0.63
  -2   0 -23   -0.26    0.83
  -2   0 -23    0.06    0.60
  -3   0 -23    0.50    0.94
  -3   0 -23    0.47    0.75
  -4   0 -23    0.46    0.71
  -4   0 -23   -1.16    0.97
  -5   0 -23    0.10    1.22
  -6   0 -23   -0.41    1.39
   7  -1 -23    9.79    2.10
   6  -1 -23    0.09    1.62
   6   1 -23    0.44    1.54
   5  -1 -23    9.25    1.79
   5   1 -23    8.24    1.67
   4  -1 -23   32.16    2.57
   4   1 -23   32.55    2.52
  -3  -1  23   24.37    1.01
   3  -1 -23   21.71    2.17
  -3   1  23   23.06    1.09
   3   1 -23   25.67    2.07
  -2  -1  23   24.38    1.13
   2  -1 -23   26.30    2.16
  -2   1  23   24.53    1.16
   2   1 -23   26.58    1.96
   1  -1 -23   33.13    2.43
  -1  -1  23   33.93    1.43
   1   1 -23   34.59    2.08
  -1   1  23   32.81    1.40
   1   1 -23   34.77    2.31
   0  -1 -23   -0.53    1.00
   0  -1 -23    0.58    0.51
   0  -1  23   -0.18    0.44
   0   1 -23    1.15    0.84
   0   1  23   -0.07    0.44
  -1  -1 -23   15.69    1.85
  -1  -1 -23   16.15    1.24
  -1   1 -23   17.18    1.52
  -1   1 -23   17.38    1.19
  -2  -1 -23   67.67    2.72
  -2  -1 -23   72.23    3.69
  -2   1 -23   66.86    2.63
  -2   1 -23   64.39    3.10
  -3  -1 -23   12.24    1.27
  -3  -1 -23   11.71    1.82
  -3   1 -23   13.28    1.32
  -3   1 -23   13.83    1.54
  -4  -1 -23   30.42    1.58
  -4  -1 -23   36.97    2.96
  -4   1 -23   32.84    2.17
  -4   1 -23   31.44    2.23
  -5  -1 -23   -0.45    1.33
  -5   1 -23   -0.01    1.07
  -6  -1 -23   22.76    2.98
  -6   1 -23   21.60    2.45
   7  -2 -23   10.64    2.25
   6  -2 -23    8.44    1.98
   5  -2 -23   13.85    2.03
   4  -2 -23    2.03    1.54
   4   2 -23    1.49    1.36
  -4   2  23    2.21    0.46
   3  -2 -23   14.14    1.67
  -3   2  23   13.61    0.91
   3   2 -23   15.32    1.62
  -2  -2  23   13.82    0.87
   2  -2 -23   14.58    1.78
  -2   2  23   14.01    0.92
   2   2 -23   18.04    1.68
  -1  -2  23    2.32    0.51
   1  -2 -23    1.93    1.41
   1   2 -23    3.04    0.91
   1   2 -23    1.23    0.99
  -1   2  23    2.24    0.51
   0  -2 -23   46.42    3.11
   0  -2  23   52.05    1.95
   0  -2 -23   52.18    2.02
   0   2 -23   56.97    2.49
   0   2  23   51.16    1.93
  -1  -2 -23    4.77    1.48
   1  -2  23    3.73    0.64
  -1  -2 -23    5.62    0.83
  -1   2 -23    6.47    0.92
  -1   2 -23    5.08    0.71
  -2  -2 -23    3.44    1.29
  -2  -2 -23    3.18    0.85
  -2   2 -23    3.36    0.82
  -2   2 -23    3.35    0.77
  -3  -2 -23    3.27    0.78
  -3  -2 -23    1.20    1.19
  -3   2 -23    2.94    0.88
  -3   2 -23    2.65    0.83
  -4  -2 -23   13.41    2.23
  -4   2 -23   14.63    1.68
  -4   2 -23   14.92    1.58
  -5  -2 -23    1.85    1.68
  -5   2 -23    2.92    1.16
  -6  -2 -23    2.73    2.01
  -6   2 -23    3.94    1.35
   7  -3 -23    0.07    1.95
   6  -3 -23    6.86    2.07
   5  -3 -23    0.98    1.65
   4  -3 -23    1.18    1.54
  -4   3  23    0.12    0.45
   3  -3 -23   22.65    2.42
  -3   3  23   20.45    1.13
  -2  -3  23   44.12    1.60
   2  -3 -23   42.78    2.85
  -2   3  23   43.29    1.68
  -1  -3  23   54.71    1.95
   1  -3 -23   49.64    3.25
  -1   3  23   54.56    1.95
   0  -3 -23    3.41    1.43
   0  -3  23    4.60    0.68
   0  -3 -23    4.97    0.73
  -1  -3 -23    6.48    0.91
   1  -3  23    9.91    0.92
  -1  -3 -23    5.96    1.62
  -1   3 -23    6.85    0.75
  -1   3 -23    8.42    0.89
  -2  -3 -23   22.11    1.60
  -2  -3 -23   19.74    2.24
  -2   3 -23   20.33    1.41
  -2   3 -23   20.23    1.37
  -3  -3 -23    2.09    1.33
  -3  -3 -23    1.61    0.60
  -3   3 -23    1.71    0.77
  -3   3 -23    2.24    0.79
  -4  -3 -23   39.09    3.42
  -4   3 -23   40.07    2.67
  -4   3 -23   41.31    2.27
  -5  -3 -23   -0.14    1.56
  -5   3 -23    2.30    1.05
  -5   3 -23    3.47    0.85
  -6  -3 -23   11.63    2.67
  -6   3 -23   17.62    1.92
   6  -4 -23    0.57    1.91
   5  -4 -23   79.18    4.38
   4  -4 -23   11.01    1.99
  -4   4  23   10.77    0.97
   3  -4 -23   12.49    1.93
  -3   4  23   11.55    0.96
   2  -4 -23   45.15    2.95
  -2  -4  23   38.22    1.51
  -2   4  23   40.81    1.65
   1  -4 -23   41.13    2.90
   1  -4 -23   44.69    1.87
  -1  -4  23   45.13    1.72
  -1   4  23   43.40    1.71
   0  -4 -23   50.64    3.49
   0  -4  23   50.94    2.02
   0  -4 -23   52.24    2.08
  -1  -4 -23    1.75    1.47
   1  -4  23   -0.03    0.59
  -1  -4 -23    0.30    0.66
  -2  -4 -23  126.70    4.34
  -2  -4 -23  120.77    5.82
  -2   4 -23  125.05    4.07
  -3  -4 -23    5.09    0.65
  -3  -4 -23    3.69    1.47
  -3   4 -23    6.24    0.97
  -4  -4 -23    5.08    1.69
  -4   4 -23    6.75    1.46
  -5  -4 -23   19.43    2.80
  -5   4 -23   29.35    2.29
  -6  -4 -23   -0.16    1.67
   6  -5 -23    2.17    2.00
   5  -5 -23    1.19    1.77
  -5   5  23    1.72    0.52
   4  -5 -23   27.20    2.98
  -4   5  23   30.24    1.51
   3  -5 -23   17.62    2.06
  -3   5  23   19.00    1.20
   2  -5 -23    6.27    1.79
  -2  -5  23    6.59    0.62
  -2   5  23    6.72    0.76
  -1  -5  23    6.53    0.69
   1  -5 -23    5.53    0.85
   1  -5 -23    0.49    1.60
  -1   5  23    6.50    0.72
   0  -5 -23   20.75    1.38
   0  -5  23   19.65    1.23
   0  -5 -23   19.97    2.35
  -1  -5 -23    6.48    1.01
   1  -5  23    7.31    0.92
  -1  -5 -23    7.33    1.81
  -2  -5 -23    5.04    0.93
  -2  -5 -23    5.68    1.55
  -2   5 -23    4.94    0.78
  -3  -5 -23   18.11    2.24
  -3  -5 -23   17.78    0.79
  -3   5 -23   17.23    1.40
  -4  -5 -23   11.35    2.05
  -4   5 -23   15.86    1.83
  -5  -5 -23   -0.81    1.34
  -5   5 -23    3.04    1.21
   6  -6 -23    0.11    2.02
   5  -6 -23   14.88    2.45
  -5   6  23   14.49    1.14
   4  -6 -23    1.31    1.73
  -4   6  23   -0.13    0.61
   3  -6 -23  114.40    5.19
  -3   6  23  107.24    3.58
   2  -6 -23   36.26    3.05
  -2   6  23   38.07    1.67
   1  -6 -23   13.07    1.27
   1  -6 -23   14.44    2.15
  -1  -6  23   14.79    1.05
   0  -6  23  132.00    4.31
   0  -6 -23  132.99    4.41
   0  -6 -23  145.52    6.38
   1  -6  23   19.89    1.42
  -1  -6 -23   20.79    2.45
  -1  -6 -23   22.97    1.60
  -2  -6 -23   10.93    1.11
   2  -6  23   11.45    1.20
  -2  -6 -23   11.46    1.78
  -2   6 -23   10.47    1.07
  -3  -6 -23    0.23    1.04
  -4  -6 -23   24.52    2.73
  -4   6 -23   35.30    2.52
  -5  -6 -23    5.77    1.75
  -5   6 -23   13.75    1.80
   6  -7 -23    0.61    2.09
   5  -7 -23    6.77    2.21
  -5   7  23    5.63    0.88
   4  -7 -23   11.21    2.24
  -4   7  23   11.16    1.06
   3  -7 -23    1.61    1.72
  -3   7  23    1.36    0.68
   2  -7 -23   26.35    2.81
  -2   7  23   25.03    1.48
   1  -7 -23    6.63    1.01
   1  -7 -23    2.94    1.71
  -1  -7  23    8.00    0.84
   0  -7 -23   10.91    2.17
   0  -7 -23   10.42    1.11
   0  -7  23   10.76    1.06
  -1  -7 -23   13.41    2.11
  -1  -7 -23   12.90    1.34
   1  -7  23   12.92    1.21
   2  -7  23    6.23    1.09
  -2  -7 -23    4.68    1.42
  -2  -7 -23    5.31    0.81
  -3  -7 -23    3.17    1.25
  -3   7 -23    3.67    1.14
  -4  -7 -23   -1.26    1.12
  -4   7 -23    0.42    1.08
  -5   7 -23   12.38    1.81
   5  -8 -23   66.36    4.37
  -5   8  23   57.46    2.48
   4  -8 -23   11.13    2.27
  -4   8  23    8.03    1.00
   3  -8 -23    3.02    1.77
  -3   8  23    1.30    0.73
   2  -8 -23   18.19    2.27
  -2   8  23   14.92    1.32
   1  -8 -23   13.39    2.15
   1  -8 -23   15.90    1.38
  -1  -8  23   15.03    1.14
   0  -8  23   29.60    1.67
   0  -8 -23   31.45    1.86
   0  -8 -23   35.09    3.08
  -1  -8 -23   13.91    2.07
   1  -8  23   11.61    1.26
  -1  -8 -23   12.44    1.33
  -2  -8 -23   93.37    4.69
  -2  -8 -23   87.83    2.98
   2  -8  23   93.07    3.55
  -3  -8 -23    4.10    1.40
  -3   8 -23    6.59    1.30
  -4  -8 -23   -0.03    1.20
  -4   8 -23    1.14    1.11
   5  -9 -23    3.58    2.14
   4  -9 -23    1.21    1.87
  -4   9  23    1.95    0.83
   3  -9 -23    1.24    1.66
  -3   9  23    1.23    0.76
   2  -9 -23   21.38    1.86
   2  -9 -23   26.38    2.76
   1  -9 -23   13.82    2.05
   1  -9 -23   13.60    1.34
  -1  -9  23   13.45    1.10
   0  -9 -23   25.99    2.82
   0  -9 -23   24.48    1.74
   0  -9  23   23.26    1.53
   1  -9  23    2.91    0.97
  -1  -9 -23    2.99    0.94
  -1  -9 -23    7.28    1.57
   2  -9  23    2.47    1.05
  -3   9 -23    9.85    1.45
  -4   9 -23    2.20    1.26
  -4  10  23    3.89    0.95
  -3  10  23   23.46    1.63
   2 -10 -23    7.33    1.30
   1 -10 -23    9.51    1.25
   0 -10  23   51.67    2.33
   0 -10 -23   55.34    2.50
  -1 -10 -23    2.08    0.86
   1 -10  23    0.93    0.93
   2 -10  23    1.09    1.01
   3 -10  23   -0.39    1.06
  -3  11  23    4.19    0.94
   2 -11 -23    5.31    1.31
   1 -11 -23    0.30    1.01
   0 -11 -23    7.36    1.10
   0 -11  23    6.62    1.06
  -1 -11 -23   18.59    1.27
   1 -11  23   15.82    1.50
   2 -11  23   22.95    1.98
   1 -12 -23    4.05    1.16
   0 -12 -23    1.75    0.83
   0 -12  23    2.00    0.86
   7   0 -24    4.52    1.91
   6   0 -24   15.90    2.20
   5   0 -24   75.80    3.99
   4   0 -24    3.71    1.49
  -3   0  24    0.71    0.42
   3   0 -24    1.73    1.27
   2   0 -24  223.53    8.11
  -2   0  24  222.48    6.43
   1   0 -24   16.35    1.78
  -1   0  24   15.92    0.99
   0   0 -24   76.59    3.67
   0   0 -24   89.13    2.96
   0   0  24   83.34    2.78
  -1   0 -24   90.79    4.11
  -1   0 -24   98.26    3.26
  -2   0 -24   70.76    3.47
  -2   0 -24   67.66    2.74
  -3   0 -24    4.48    1.26
  -3   0 -24    5.62    1.04
  -4   0 -24    0.99    1.13
  -4   0 -24    2.32    0.86
  -5   0 -24   72.92    4.17
  -6   0 -24    2.87    1.64
   7  -1 -24    0.67    1.82
   6  -1 -24   16.27    2.24
   6   1 -24   16.06    2.18
   5  -1 -24    2.97    1.65
   5   1 -24    3.55    1.60
   4  -1 -24    1.24    1.39
   4   1 -24    1.61    1.40
   3  -1 -24   14.06    1.74
  -3  -1  24   12.04    0.77
   3   1 -24   13.29    1.64
  -3   1  24   12.82    0.86
   2  -1 -24    0.67    1.23
  -2  -1  24    0.45    0.43
   2   1 -24    1.16    1.05
  -2   1  24    0.14    0.42
   1  -1 -24   24.23    2.18
  -1  -1  24   28.31    1.29
   1   1 -24   28.40    2.17
   1   1 -24   28.01    1.91
  -1   1  24   26.92    1.27
   0  -1 -24   23.81    1.30
   0  -1  24   23.90    1.26
   0  -1 -24   19.77    2.08
   0   1 -24   25.21    1.77
   0   1  24   23.92    1.20
  -1  -1 -24   29.86    1.60
  -1  -1 -24   31.27    2.43
  -1   1 -24   30.16    1.53
  -1   1 -24   31.32    1.96
  -2  -1 -24   46.67    2.19
  -2  -1 -24   45.66    2.94
  -2   1 -24   43.71    2.08
  -2   1 -24   45.06    2.46
  -3  -1 -24   -0.34    1.12
  -3  -1 -24    0.54    0.73
  -3   1 -24    0.24    0.78
  -3   1 -24    1.13    0.92
  -4  -1 -24   18.06    1.43
  -4  -1 -24   19.38    2.38
  -4   1 -24   16.42    1.83
  -4   1 -24   19.64    1.88
  -5  -1 -24    2.57    1.63
  -5   1 -24    0.87    1.17
  -6  -1 -24    4.65    2.06
  -6   1 -24    6.16    1.65
   7  -2 -24   55.58    3.87
   6  -2 -24    6.26    1.92
   5  -2 -24    9.33    1.86
   4  -2 -24   82.13    4.08
  -4   2  24   80.37    2.62
   3  -2 -24    8.09    1.61
  -3  -2  24    8.01    0.54
   3   2 -24    9.21    1.48
  -3   2  24    8.51    0.75
  -2  -2  24   18.46    1.00
   2  -2 -24   15.10    1.79
   2   2 -24   21.16    1.79
  -2   2  24   18.14    1.04
   1  -2 -24    7.36    1.64
  -1  -2  24    8.00    0.76
   1   2 -24    9.30    1.14
  -1   2  24    7.45    0.74
   0  -2 -24  263.40    7.80
   0  -2  24  268.41    7.77
   0  -2 -24  250.16    9.88
   0   2  24  273.26    7.75
   0   2 -24  285.23    9.39
   1  -2  24    3.18    0.66
  -1  -2 -24    4.10    0.79
  -1  -2 -24    2.52    1.39
  -1   2 -24    4.52    0.90
  -1   2 -24    3.63    0.67
  -2  -2 -24   24.33    2.52
  -2  -2 -24   24.07    1.70
  -2   2 -24   26.92    1.61
  -3  -2 -24   90.14    4.83
  -3  -2 -24   86.47    3.32
  -3   2 -24   91.83    3.47
  -3   2 -24   92.98    3.90
  -4  -2 -24    0.64    1.31
  -4   2 -24    0.84    1.01
  -4   2 -24    1.29    0.92
  -5  -2 -24    8.68    2.22
  -5   2 -24   10.09    1.54
  -6  -2 -24   -0.68    1.71
  -6   2 -24   -0.45    1.18
   6  -3 -24    1.61    1.85
   5  -3 -24    3.99    1.80
   4  -3 -24   38.27    3.06
  -4   3  24   39.02    1.60
   3  -3 -24   50.65    3.23
  -3   3  24   54.46    1.98
   2  -3 -24   17.99    2.06
  -2  -3  24   20.90    1.05
  -2   3  24   21.41    1.14
   1  -3 -24   30.16    2.71
  -1  -3  24   36.15    1.50
  -1   3  24   35.97    1.50
   0  -3  24   13.40    1.05
   0  -3 -24   12.11    1.84
   0  -3 -24   13.05    1.13
  -1  -3 -24   10.91    1.82
   1  -3  24   10.53    0.98
  -1  -3 -24   12.79    1.18
  -1   3 -24   12.87    1.03
  -2  -3 -24   -0.09    0.75
  -2  -3 -24   -1.32    1.24
  -2   3 -24   -0.34    0.67
  -2   3 -24   -0.15    0.62
  -3  -3 -24    4.72    1.52
  -3  -3 -24    6.59    0.86
  -3   3 -24    4.77    0.95
  -3   3 -24    6.64    1.02
  -4  -3 -24   43.96    3.60
  -4   3 -24   44.29    2.83
  -4   3 -24   41.95    2.40
  -5  -3 -24   -1.08    1.44
  -5   3 -24    3.31    0.82
  -5   3 -24    0.46    0.99
  -6  -3 -24    1.21    1.90
  -6   3 -24    0.47    1.20
   6  -4 -24    0.00    1.94
   5  -4 -24   14.23    2.22
   4  -4 -24    5.55    1.91
  -4   4  24    6.83    0.78
   3  -4 -24    2.16    1.54
  -3   4  24    1.58    0.60
   2  -4 -24  107.60    4.72
  -2  -4  24  103.83    3.28
  -2   4  24  106.52    3.39
   1  -4 -24    7.43    1.78
  -1  -4  24    9.22    0.89
   1  -4 -24   10.09    1.01
  -1   4  24   10.12    0.93
   0  -4 -24    8.27    1.96
   0  -4 -24    9.89    0.98
   0  -4  24   10.58    0.98
  -1  -4 -24   13.18    2.20
   1  -4  24   15.27    1.24
  -1  -4 -24   14.33    1.33
  -2  -4 -24    9.89    1.89
  -2  -4 -24   10.40    1.19
  -2   4 -24    8.67    1.01
  -3  -4 -24    2.26    1.27
  -3  -4 -24    2.30    0.56
  -3   4 -24    2.02    0.78
  -4  -4 -24    3.42    1.60
  -4   4 -24    4.43    1.40
  -5  -4 -24   48.98    3.97
  -5   4 -24   57.70    2.94
   6  -5 -24   25.81    2.96
   5  -5 -24   20.66    2.64
  -5   5  24   17.04    1.05
   4  -5 -24   32.01    3.11
  -4   5  24   30.38    1.54
   3  -5 -24    1.55    1.69
  -3   5  24    0.88    0.60
   2  -5 -24    9.42    1.87
  -2  -5  24    8.99    0.75
  -2   5  24    9.29    0.85
  -1  -5  24   12.51    1.00
   1  -5 -24   14.29    1.24
   1  -5 -24   10.88    1.87
  -1   5  24   12.06    1.01
   0  -5 -24    4.50    0.85
   0  -5  24    4.66    0.76
   0  -5 -24    2.69    1.62
  -1  -5 -24   23.80    2.75
   1  -5  24   23.10    1.46
  -1  -5 -24   22.11    1.59
  -2  -5 -24   61.59    2.58
  -2  -5 -24   56.50    3.71
  -2   5 -24   57.88    2.33
  -3  -5 -24    5.28    0.50
  -3  -5 -24    4.86    1.51
  -3   5 -24    5.02    0.94
  -4  -5 -24    1.40    1.35
  -4   5 -24    2.88    1.27
  -5  -5 -24    5.65    1.83
  -5   5 -24   12.35    1.68
   6  -6 -24    6.95    2.30
   5  -6 -24    0.54    1.97
  -5   6  24    0.29    0.59
   4  -6 -24    2.13    1.90
  -4   6  24    0.74    0.67
   3  -6 -24    0.75    1.66
  -3   6  24    0.62    0.62
   2  -6 -24    1.10    1.66
  -2   6  24    2.13    0.66
  -1  -6  24    2.97    0.63
   1  -6 -24    0.41    1.61
   1  -6 -24    3.80    0.88
   0  -6 -24    5.82    1.96
   0  -6  24    5.07    0.80
   0  -6 -24    6.13    0.95
  -1  -6 -24   21.44    1.64
  -1  -6 -24   25.91    2.78
   1  -6  24   21.43    1.50
  -2  -6 -24    0.63    1.19
  -2  -6 -24    0.14    0.66
   2  -6  24   -0.68    0.72
  -3  -6 -24    8.68    1.70
  -4  -6 -24    0.57    1.30
  -4   6 -24    1.29    1.17
  -5  -6 -24   -0.45    1.28
  -5   6 -24    1.35    1.18
   5  -7 -24    0.40    2.01
  -5   7  24   -0.01    0.66
   4  -7 -24   50.13    3.68
  -4   7  24   45.14    2.08
   3  -7 -24    8.86    2.02
  -3   7  24    9.73    1.01
   2  -7 -24   19.91    2.37
  -2   7  24   18.89    1.34
   1  -7 -24   -1.15    1.60
   1  -7 -24    0.37    0.81
  -1  -7  24    0.93    0.59
   0  -7 -24    7.54    1.03
   0  -7  24    6.75    0.94
   0  -7 -24    5.34    1.84
   1  -7  24   11.51    1.21
  -1  -7 -24   12.97    1.36
  -1  -7 -24   13.21    2.16
   2  -7  24   10.00    1.29
  -2  -7 -24    8.05    1.68
  -2  -7 -24    8.69    0.96
  -3  -7 -24    5.29    1.48
  -3   7 -24    6.28    1.29
  -4  -7 -24   11.47    2.07
  -4   7 -24   18.57    1.97
  -5  -7 -24   -2.00    1.18
   5  -8 -24    0.81    2.01
  -5   8  24   -0.27    0.71
   4  -8 -24    5.03    2.04
  -4   8  24    3.77    0.86
   3  -8 -24    5.18    1.86
  -3   8  24    4.19    0.84
   2  -8 -24    1.19    1.60
  -2   8  24    1.46    0.74
   1  -8 -24    3.97    0.99
   1  -8 -24    2.28    1.62
  -1  -8  24    4.71    0.76
   0  -8 -24   26.53    1.75
   0  -8 -24   27.32    2.92
   0  -8  24   26.74    1.61
   1  -8  24   11.56    1.27
  -1  -8 -24   18.57    2.32
  -1  -8 -24   13.07    1.38
   2  -8  24   -0.93    0.87
  -2  -8 -24    1.70    1.19
  -2  -8 -24    0.18    0.51
  -3  -8 -24    6.33    1.60
  -3   8 -24    5.56    1.33
  -4  -8 -24    2.04    1.45
  -4   8 -24    2.50    1.23
   5  -9 -24    5.01    2.21
   4  -9 -24   13.73    2.31
  -4   9  24   13.34    1.22
   3  -9 -24    5.52    1.82
  -3   9  24    5.09    0.93
   2  -9 -24    9.05    1.82
   2  -9 -24    7.77    1.30
  -1  -9  24    0.54    0.59
   1  -9 -24    1.28    0.95
   1  -9 -24    0.19    1.42
   0  -9  24    3.71    0.88
   0  -9 -24    4.52    1.60
   0  -9 -24    5.05    1.01
  -1  -9 -24    6.72    1.61
  -1  -9 -24    5.07    1.03
   1  -9  24    5.52    1.09
   2  -9  24   20.38    1.78
  -3   9 -24    5.62    1.33
   4 -10 -24   20.75    2.61
  -3  10  24    8.52    1.09
   2 -10 -24   19.77    1.96
   1 -10 -24    1.61    1.02
   0 -10  24   19.46    1.55
   0 -10 -24   22.45    1.75
   1 -10  24   10.33    1.28
  -1 -10 -24   12.23    1.25
   2 -10  24   20.66    1.82
   3 -10  24   13.09    1.62
  -3  11  24    6.43    1.02
   2 -11 -24    2.93    1.19
   1 -11 -24    2.92    1.08
   0 -11 -24    0.76    0.86
   0 -11  24    0.06    0.83
   1 -11  24   11.08    1.35
  -1 -11 -24    9.95    0.94
   2 -11  24   10.74    1.47
   7   0 -25   -0.29    1.76
   6   0 -25   -2.05    1.63
   5   0 -25   -0.31    1.52
   4   0 -25   -0.44    1.38
   3   0 -25    0.00    1.22
  -3   0  25   -0.34    0.41
   2   0 -25    1.49    1.19
  -2   0  25    0.37    0.44
   1   0 -25    4.38    1.14
  -1   0  25    6.73    0.70
   0   0  25   -0.12    0.49
   0   0 -25   -0.25    1.01
  -1   0 -25    0.68    0.98
  -1   0 -25    0.95    0.64
  -2   0 -25   -0.24    0.68
  -2   0 -25   -0.17    0.81
  -3   0 -25   -0.44    0.97
  -3   0 -25   -0.65    0.76
  -4   0 -25    0.98    0.82
  -4   0 -25   -0.28    1.05
  -5   0 -25   -1.37    1.21
  -6   0 -25   -0.79    1.43
   7  -1 -25   -0.01    1.85
   6  -1 -25   40.77    3.34
   6   1 -25   38.19    3.20
   5  -1 -25   -1.20    1.53
   5   1 -25    2.49    1.56
   4  -1 -25   62.25    3.56
   4   1 -25   63.93    3.43
   3  -1 -25    2.85    1.36
  -3  -1  25    0.89    0.41
   3   1 -25   -0.12    1.22
  -3   1  25    1.47    0.49
  -2  -1  25   10.26    0.85
   2  -1 -25   12.09    1.65
   2   1 -25   10.94    1.43
  -2   1  25   10.87    0.88
   1  -1 -25   31.01    2.15
  -1  -1  25   29.14    1.38
  -1   1  25   29.40    1.35
   1   1 -25   29.28    1.96
   0  -1 -25    1.04    1.19
   0  -1 -25    1.40    0.64
   0  -1  25    1.44    0.54
   0   1 -25    1.12    0.94
   0   1  25    0.82    0.52
  -1  -1 -25   69.38    2.59
  -1  -1 -25   66.81    3.56
  -1   1 -25   66.53    3.12
  -1   1 -25   65.38    2.49
  -2  -1 -25   10.98    1.73
  -2  -1 -25   10.34    1.19
  -2   1 -25   12.72    1.21
  -2   1 -25    9.85    1.29
  -3  -1 -25   11.45    1.30
  -3  -1 -25   14.80    2.08
  -3   1 -25   11.78    1.36
  -3   1 -25   12.75    1.56
  -4  -1 -25    2.40    0.74
  -4  -1 -25   -1.52    1.16
  -4   1 -25    0.34    0.99
  -4   1 -25    0.52    0.92
  -5  -1 -25    6.20    1.91
  -5   1 -25    9.06    1.62
  -6  -1 -25    0.05    1.78
  -6   1 -25    1.08    1.34
   6  -2 -25    1.07    1.84
   5  -2 -25    0.47    1.64
   4  -2 -25    6.18    1.70
  -4   2  25    6.98    0.69
  -3  -2  25    1.12    0.33
   3  -2 -25    1.36    1.43
  -3   2  25    1.44    0.50
   2  -2 -25   24.37    2.31
  -2  -2  25   23.08    1.16
  -2   2  25   23.32    1.20
   2   2 -25   25.20    1.87
   1  -2 -25   -1.15    1.24
  -1  -2  25    0.62    0.50
   1   2 -25    1.52    0.83
  -1   2  25    0.63    0.47
   0  -2  25   10.79    0.98
   0  -2 -25   11.01    1.08
   0  -2 -25   10.14    1.74
   0   2  25   11.02    0.95
   0   2 -25   14.14    1.35
   1  -2  25    9.72    0.93
  -1  -2 -25    9.28    1.01
  -1  -2 -25    9.80    1.69
  -1   2 -25   12.03    1.25
  -1   2 -25   10.73    0.98
  -2  -2 -25   18.44    2.27
  -2  -2 -25   16.15    1.51
  -2   2 -25   13.65    1.35
  -2   2 -25   16.52    1.44
  -3  -2 -25   15.40    2.29
  -3  -2 -25   14.53    1.37
  -3   2 -25   16.73    1.54
  -3   2 -25   16.13    1.58
  -4  -2 -25   -0.25    1.38
  -4   2 -25    0.94    1.02
  -4   2 -25    0.46    0.95
  -5  -2 -25   13.71    2.56
  -5   2 -25   16.65    1.88
  -6  -2 -25   -0.90    1.85
  -6   2 -25    1.90    1.32
   6  -3 -25   11.97    2.33
   5  -3 -25    6.93    2.00
   4  -3 -25   48.40    3.33
  -4   3  25   43.57    1.77
   3  -3 -25    0.39    1.55
  -3   3  25    0.52    0.54
  -2  -3  25    1.08    0.47
   2  -3 -25    1.03    1.52
  -2   3  25    1.19    0.53
   1  -3 -25   35.65    2.81
  -1  -3  25   40.79    1.66
  -1   3  25   40.02    1.65
   0  -3 -25    0.19    0.64
   0  -3  25    0.02    0.55
   0  -3 -25   -1.39    1.42
   1  -3  25   12.27    1.10
  -1  -3 -25   10.03    1.10
  -1  -3 -25   11.58    2.01
  -2  -3 -25   14.45    2.18
  -2  -3 -25   15.53    1.46
  -2   3 -25   11.15    1.20
  -2   3 -25   11.29    1.15
  -3  -3 -25   10.46    1.03
  -3  -3 -25   10.85    2.03
  -3   3 -25    9.09    1.17
  -3   3 -25    9.22    1.17
  -4  -3 -25    1.91    1.57
  -4   3 -25    2.75    0.99
  -4   3 -25    2.26    1.24
  -5  -3 -25    1.89    1.84
  -5   3 -25   10.04    1.18
  -5   3 -25    5.23    1.26
  -6   3 -25    6.16    1.49
   6  -4 -25    7.13    2.22
   5  -4 -25    0.88    1.90
   4  -4 -25   24.46    2.57
  -4   4  25   23.84    1.33
   3  -4 -25   16.54    2.12
  -3   4  25   15.27    1.11
   2  -4 -25   75.15    4.01
  -2  -4  25   75.09    2.49
  -2   4  25   73.84    2.59
  -1  -4  25   14.55    1.05
   1  -4 -25   13.60    2.05
  -1   4  25   15.73    1.09
   0  -4  25   88.27    3.05
   0  -4 -25   85.41    4.62
   0  -4 -25   90.08    3.11
  -1  -4 -25   65.44    3.82
   1  -4  25   58.68    2.41
  -1  -4 -25   57.42    2.52
  -2  -4 -25    0.43    0.79
  -2  -4 -25    0.88    1.38
  -2   4 -25    0.51    0.72
  -3  -4 -25   31.11    2.88
  -3  -4 -25   24.78    1.35
  -3   4 -25   26.98    1.72
  -4  -4 -25   14.12    2.38
  -4   4 -25   14.00    1.88
  -5  -4 -25   16.34    2.76
  -5   4 -25   21.81    2.13
   6  -5 -25   18.90    2.73
   5  -5 -25    0.57    1.88
  -5   5  25   -0.01    0.46
   4  -5 -25    1.09    1.85
  -4   5  25    1.39    0.67
   3  -5 -25    2.89    1.63
  -3   5  25    0.70    0.63
   2  -5 -25   29.75    2.60
  -2  -5  25   27.38    1.26
  -2   5  25   30.50    1.48
  -1  -5  25    3.98    0.68
   1  -5 -25    3.24    0.85
   1  -5 -25    1.96    1.70
  -1   5  25    4.00    0.72
   0  -5 -25   29.70    2.81
   0  -5 -25   31.72    1.70
   0  -5  25   28.60    1.54
  -1  -5 -25   69.60    4.16
  -1  -5 -25   63.01    2.72
   1  -5  25   65.51    2.58
  -2  -5 -25    1.25    0.78
  -2  -5 -25   -0.57    1.19
  -2   5 -25    0.89    0.69
  -3  -5 -25    4.59    1.52
  -3  -5 -25    3.70    0.47
  -3   5 -25    4.13    0.91
  -4  -5 -25   -0.54    1.21
  -4   5 -25    0.84    1.21
  -5  -5 -25    3.73    1.80
  -5   5 -25    8.76    1.51
   6  -6 -25    1.15    2.14
   5  -6 -25   14.17    2.55
  -5   6  25   14.63    1.14
   4  -6 -25   42.02    3.44
  -4   6  25   40.17    1.89
   3  -6 -25   33.08    3.00
  -3   6  25   34.06    1.67
   2  -6 -25   60.31    3.71
  -2   6  25   58.33    2.27
  -1  -6  25   24.06    1.32
   1  -6 -25   21.26    2.47
   1  -6 -25   22.08    1.57
   0  -6 -25   38.24    1.94
   0  -6 -25   39.14    3.34
   0  -6  25   37.69    1.81
  -1  -6 -25    3.26    0.93
   1  -6  25    2.43    0.82
  -1  -6 -25    4.11    1.72
  -2  -6 -25   31.63    2.86
  -2  -6 -25   28.60    1.74
   2  -6  25   29.36    1.85
  -3  -6 -25   51.19    3.51
  -4  -6 -25    3.87    1.58
  -4   6 -25    9.17    1.62
  -5  -6 -25   44.70    3.63
  -5   6 -25   64.13    3.39
   5  -7 -25   19.68    2.76
  -5   7  25   17.30    1.35
   4  -7 -25    7.47    2.10
  -4   7  25    5.13    0.89
   3  -7 -25    1.30    1.73
  -3   7  25    0.19    0.69
   2  -7 -25   12.23    2.01
  -2   7  25   13.24    1.14
   1  -7 -25    3.30    0.93
   1  -7 -25    2.14    1.68
  -1  -7  25    4.09    0.73
   0  -7  25    0.53    0.71
   0  -7 -25    1.85    0.83
   0  -7 -25    1.15    1.62
   1  -7  25   31.91    1.88
  -1  -7 -25   35.18    2.04
  -1  -7 -25   33.12    3.08
  -2  -7 -25    5.06    0.86
  -2  -7 -25    5.74    1.58
   2  -7  25    5.80    1.11
  -3  -7 -25   24.52    2.51
  -3   7 -25   24.41    2.11
  -4  -7 -25   -0.89    1.17
  -4   7 -25    0.23    1.09
  -5  -7 -25    2.72    1.70
   5  -8 -25    2.64    2.09
  -5   8  25    0.85    0.77
   4  -8 -25   11.60    2.32
  -4   8  25   11.26    1.15
   3  -8 -25    5.56    1.92
  -3   8  25    5.28    0.92
   2  -8 -25   44.52    3.26
  -2   8  25   47.55    2.08
   1  -8 -25   18.52    1.63
   1  -8 -25   16.31    2.22
  -1  -8  25   16.23    1.21
   0  -8 -25   69.20    4.19
   0  -8  25   60.64    2.56
   0  -8 -25   66.63    2.74
   1  -8  25   25.62    1.82
  -1  -8 -25   30.61    2.89
  -1  -8 -25   28.84    1.91
   2  -8  25    3.81    1.09
  -2  -8 -25    4.67    1.46
  -2  -8 -25    4.15    0.68
  -3  -8 -25   29.28    2.78
  -3   8 -25   37.29    2.41
  -4  -8 -25    4.71    1.68
  -4   8 -25    8.27    1.47
   4  -9 -25   49.84    3.70
  -4   9  25   44.18    2.16
   3  -9 -25    7.09    1.93
  -3   9  25    4.97    0.97
   2  -9 -25    5.70    1.70
   2  -9 -25    4.23    1.17
   1  -9 -25   12.69    1.36
   1  -9 -25   11.73    1.95
  -1  -9  25   11.56    1.07
   0  -9 -25   11.79    2.02
   0  -9  25   11.09    1.15
   0  -9 -25   10.24    1.24
  -1  -9 -25    6.83    1.12
   1  -9  25    5.22    1.11
  -1  -9 -25    8.82    1.78
   2  -9  25   -0.44    0.97
  -2  -9 -25    2.25    1.24
  -3   9 -25   19.24    1.95
   4 -10 -25   12.96    2.25
   3 -10 -25   24.34    2.83
  -3  10  25   17.28    1.54
   2 -10 -25   36.40    2.33
   1 -10 -25    6.06    1.19
   0 -10 -25    2.04    0.94
   0 -10  25    0.63    0.82
   1 -10  25    2.54    1.04
  -1 -10 -25    3.24    0.89
   2 -10  25   13.47    1.58
   2 -11 -25   33.70    2.31
   1 -11 -25    2.26    1.08
   0 -11 -25   16.89    1.62
   0 -11  25   16.28    1.50
   1 -11  25   20.72    1.80
  -1 -11 -25   21.68    1.29
   6   0 -26    0.60    1.72
   5   0 -26   23.13    2.61
   4   0 -26  129.93    5.53
  -3   0  26   11.93    0.89
   3   0 -26   12.19    1.75
   2   0 -26    2.94    1.24
   1   0 -26    9.97    1.40
  -1   0  26   10.09    0.92
   0   0 -26   67.42    3.34
   0   0  26   70.40    2.47
  -1   0 -26    9.92    1.03
  -1   0 -26   10.73    1.52
  -2   0 -26   -0.17    0.99
  -2   0 -26    0.78    0.77
  -3   0 -26  189.19    6.10
  -3   0 -26  172.29    7.27
  -4   0 -26    1.37    0.90
  -4   0 -26    0.25    1.10
  -5   0 -26    4.66    1.60
  -6   0 -26   29.61    3.17
   6  -1 -26    1.27    1.85
   5  -1 -26   24.17    2.73
   5   1 -26   24.53    2.71
   4  -1 -26   13.81    2.02
   4   1 -26   11.78    1.82
   3  -1 -26    7.34    1.62
  -3  -1  26    7.55    0.68
  -3   1  26    8.13    0.74
   3   1 -26    8.40    1.54
  -2  -1  26    3.29    0.59
   2  -1 -26    3.03    1.36
   2   1 -26    3.39    1.24
  -2   1  26    3.92    0.62
   1  -1 -26   62.81    3.25
  -1  -1  26   63.36    2.29
   1   1 -26   63.84    3.02
  -1   1  26   63.05    2.26
   0  -1  26   15.69    1.12
   0  -1 -26   15.19    1.78
   0  -1 -26   15.49    1.22
   0   1  26   14.69    1.07
   0   1 -26   14.26    1.56
  -1  -1 -26    8.26    1.60
  -1  -1 -26   16.60    1.32
  -1   1 -26   14.04    1.19
  -1   1 -26   10.89    1.38
  -2  -1 -26   48.26    3.06
  -2  -1 -26   43.25    2.23
  -2   1 -26   45.31    2.57
  -2   1 -26   46.46    2.21
  -3  -1 -26    3.85    1.46
  -3  -1 -26    4.02    0.98
  -3   1 -26    3.63    1.01
  -3   1 -26    4.68    1.16
  -4  -1 -26   13.16    2.15
  -4  -1 -26   17.95    1.44
  -4   1 -26   14.24    1.77
  -4   1 -26   14.84    1.68
  -5  -1 -26    0.03    1.46
  -5   1 -26   -0.49    1.14
  -6  -1 -26   10.32    2.76
  -6   1 -26    9.70    2.09
   6  -2 -26   12.52    2.31
   5  -2 -26    0.69    1.71
   4  -2 -26    0.36    1.55
  -4   2  26    0.88    0.48
  -3  -2  26    2.26    0.41
   3  -2 -26    2.19    1.49
  -3   2  26    2.92    0.61
   2  -2 -26  175.20    6.90
  -2  -2  26  176.32    5.24
  -2   2  26  175.20    5.28
   2   2 -26  180.55    6.75
   1  -2 -26    5.56    1.53
  -1  -2  26    8.19    0.83
  -1   2  26    8.87    0.83
   1   2 -26    8.13    1.10
   0  -2 -26    2.76    0.70
   0  -2 -26    0.22    1.34
   0  -2  26    2.13    0.64
   0   2  26    2.58    0.63
   0   2 -26    2.71    0.83
   1  -2  26  105.13    3.54
  -1  -2 -26  108.69    5.08
  -1  -2 -26  102.31    3.66
  -1   2 -26  109.46    4.21
  -1   2 -26  101.22    3.48
  -2  -2 -26    2.46    0.89
  -2  -2 -26    1.37    1.29
  -2   2 -26    1.81    0.80
  -2   2 -26    2.21    0.86
  -3  -2 -26   10.30    1.18
  -3  -2 -26   12.73    2.18
  -3   2 -26   11.16    1.31
  -3   2 -26   10.09    1.34
  -4  -2 -26    7.65    2.01
  -4   2 -26    5.69    1.23
  -4   2 -26    7.26    1.43
  -5  -2 -26   44.67    3.89
  -5   2 -26   45.34    2.86
   6  -3 -26   45.88    3.67
   5  -3 -26    0.35    1.77
   4  -3 -26    3.42    1.83
  -4   3  26    2.75    0.61
   3  -3 -26   56.86    3.43
  -3   3  26   55.50    2.10
   2  -3 -26   -0.21    1.32
  -2  -3  26    0.08    0.47
  -2   3  26   -0.06    0.52
   1  -3 -26    7.00    1.73
  -1  -3  26    6.95    0.80
  -1   3  26    6.89    0.77
   0  -3 -26   10.50    1.03
   0  -3 -26   11.83    2.01
   0  -3  26   11.09    1.06
  -1  -3 -26   64.90    2.66
   1  -3  26   66.36    2.53
  -1  -3 -26   64.34    3.93
  -2  -3 -26   10.82    1.30
  -2  -3 -26   11.10    2.01
  -2   3 -26   11.71    1.36
  -2   3 -26   12.95    1.23
  -3  -3 -26   -0.79    1.29
  -3  -3 -26    0.77    0.65
  -3   3 -26    0.27    0.80
  -3   3 -26    0.34    0.78
  -4  -3 -26   29.11    3.25
  -4   3 -26   34.80    2.66
  -4   3 -26   33.60    2.14
  -5  -3 -26    5.26    2.13
   6  -4 -26    0.84    2.00
   5  -4 -26   10.42    2.29
   4  -4 -26   36.82    3.21
  -4   4  26   37.84    1.69
   3  -4 -26    9.40    1.94
  -3   4  26    8.39    0.88
   2  -4 -26    0.62    1.56
  -2  -4  26    0.04    0.46
  -2   4  26    0.19    0.56
  -1  -4  26   13.09    1.06
   1  -4 -26   13.30    2.02
  -1   4  26   14.16    1.10
   0  -4 -26   32.08    1.71
   0  -4 -26   29.05    2.90
   0  -4  26   32.71    1.64
   1  -4  26    2.37    0.77
  -1  -4 -26   -0.17    1.51
  -1  -4 -26    1.98    0.82
  -2  -4 -26   13.95    1.44
  -2  -4 -26   13.83    2.25
  -2   4 -26   11.50    1.16
  -3  -4 -26   58.47    3.89
  -3  -4 -26   54.97    2.14
  -3   4 -26   51.29    2.44
  -4  -4 -26   -1.74    1.31
  -4   4 -26    2.03    1.24
  -5  -4 -26    0.00    1.62
  -5   4 -26    6.27    1.23
   6  -5 -26    9.91    2.45
   5  -5 -26   13.52    2.48
  -5   5  26   12.11    0.90
   4  -5 -26   32.76    3.23
  -4   5  26   32.82    1.65
   3  -5 -26    5.10    1.85
  -3   5  26    5.03    0.81
   2  -5 -26    0.93    1.60
  -2   5  26    2.55    0.67
   1  -5 -26  122.03    4.03
  -1  -5  26  126.82    3.88
   1  -5 -26  110.21    5.44
  -1   5  26  121.53    3.89
   0  -5 -26    1.20    1.51
   0  -5 -26    2.37    0.84
   0  -5  26    2.54    0.73
  -1  -5 -26   29.32    3.05
  -1  -5 -26   29.51    1.82
   1  -5  26   29.94    1.69
  -2  -5 -26   13.60    2.24
  -2  -5 -26   14.80    1.42
  -2   5 -26   15.12    1.33
  -3  -5 -26    3.27    1.48
  -3  -5 -26    1.90    0.44
  -3   5 -26    2.00    0.84
  -4  -5 -26   -0.07    1.38
  -4   5 -26    1.11    1.22
  -5  -5 -26   -1.85    1.34
  -5   5 -26    3.91    1.26
   6  -6 -26    2.54    2.47
   5  -6 -26    3.33    2.12
  -5   6  26    2.56    0.68
   4  -6 -26    1.24    1.88
  -4   6  26    0.21    0.69
   3  -6 -26    9.88    2.01
  -3   6  26    9.39    0.98
   2  -6 -26    2.21    1.71
  -2   6  26    2.20    0.72
   1  -6 -26    1.99    1.69
   1  -6 -26    4.18    0.93
  -1  -6  26    4.18    0.73
   0  -6 -26    2.40    0.86
   0  -6  26    1.38    0.72
   0  -6 -26   -0.93    1.64
  -1  -6 -26   15.76    1.48
   1  -6  26   15.45    1.36
  -1  -6 -26   19.02    2.50
   2  -6  26   -0.15    0.80
  -2  -6 -26    0.31    0.71
  -2  -6 -26    0.34    1.22
  -3  -6 -26    1.74    1.30
  -4  -6 -26    5.38    1.71
  -4   6 -26    2.85    1.28
  -5  -6 -26    0.78    1.42
   5  -7 -26    0.28    2.08
  -5   7  26   -0.38    0.64
   4  -7 -26   25.88    2.83
  -4   7  26   22.87    1.56
   3  -7 -26   46.32    3.44
  -3   7  26   42.44    2.02
   2  -7 -26    0.62    1.57
  -2   7  26    0.65    0.68
   1  -7 -26   37.21    3.16
  -1  -7  26   40.16    1.80
   1  -7 -26   40.71    2.06
   0  -7 -26    1.45    0.86
   0  -7  26    0.11    0.69
   0  -7 -26    0.33    1.65
  -1  -7 -26   42.43    2.27
  -1  -7 -26   45.42    3.51
   1  -7  26   43.39    2.18
   2  -7  26    0.55    0.93
  -2  -7 -26    0.26    0.67
  -2  -7 -26    0.84    1.26
  -3  -7 -26    5.79    1.67
  -3   7 -26    6.99    1.36
  -4  -7 -26   16.19    2.39
  -4   7 -26   20.16    2.08
   5  -8 -26    1.41    2.06
   4  -8 -26    0.05    1.88
  -4   8  26    0.45    0.79
   3  -8 -26   -0.12    1.70
  -3   8  26    0.00    0.73
   2  -8 -26    4.70    1.72
  -2   8  26    4.15    0.87
   1  -8 -26    2.63    1.57
   1  -8 -26    4.71    1.07
  -1  -8  26    5.66    0.81
   0  -8 -26    3.38    1.75
   0  -8 -26    4.75    1.01
   0  -8  26    3.66    0.90
  -1  -8 -26    5.63    1.12
   1  -8  26    6.47    1.11
  -1  -8 -26    8.15    1.88
  -2  -8 -26    2.50    0.64
  -2  -8 -26    4.18    1.46
   2  -8  26    1.91    1.04
  -3  -8 -26    0.35    1.24
  -3   8 -26    1.76    1.19
  -4  -8 -26    7.86    1.94
  -4   8 -26    9.46    1.70
   4  -9 -26    2.11    1.95
  -4   9  26    1.60    0.85
   3  -9 -26    4.97    1.81
  -3   9  26    2.08    0.81
   2  -9 -26    0.54    1.05
   2  -9 -26    2.60    1.59
   1  -9 -26   38.27    2.18
  -1  -9  26   38.41    1.71
   1  -9 -26   39.92    3.01
   0  -9 -26   13.64    1.38
   0  -9 -26   11.41    1.98
   0  -9  26   11.56    1.20
  -1  -9 -26   12.51    2.02
  -1  -9 -26   11.22    1.32
   1  -9  26    9.63    1.32
  -2  -9 -26    2.59    1.35
   2  -9  26    0.77    1.04
   3 -10 -26    3.96    1.67
  -3  10  26    0.48    0.81
   2 -10 -26   10.13    1.81
   2 -10 -26    6.13    1.26
   1 -10 -26   -0.15    0.99
   0 -10  26   10.19    1.20
   0 -10 -26   10.76    1.30
  -1 -10 -26   18.25    1.53
   1 -10  26   18.07    1.59
   2 -10  26    0.38    1.03
   2 -11 -26    0.12    1.10
   1 -11 -26   11.03    1.37
   0 -11  26    8.13    1.09
   0 -11 -26    8.68    1.16
   1 -11  26    8.65    1.31
   6   0 -27   -0.41    1.76
   5   0 -27    0.67    1.67
   4   0 -27   -0.80    1.47
  -3   0  27   -0.02    0.47
   3   0 -27    0.32    1.33
  -2   0  27   -0.12    0.50
   2   0 -27    0.18    1.23
   1   0 -27    0.12    1.06
  -1   0  27    0.64    0.53
   0   0  27   -0.02    0.54
   0   0 -27   -0.15    1.02
  -1   0 -27    0.64    0.99
  -1   0 -27    1.09    0.70
  -2   0 -27    0.14    0.74
  -2   0 -27   -0.24    1.01
  -3   0 -27    0.30    1.13
  -3   0 -27    0.82    0.87
  -4   0 -27    0.84    0.92
  -4   0 -27   -0.50    1.11
  -5   0 -27   -1.49    1.25
   6  -1 -27   11.10    2.24
   5  -1 -27   13.23    2.18
   5   1 -27   11.90    2.04
   4  -1 -27   11.93    1.96
   4   1 -27   14.70    1.96
   3  -1 -27  100.40    4.60
  -3  -1  27   99.15    3.18
  -3   1  27  103.88    3.27
   3   1 -27  102.56    4.46
  -2  -1  27    1.04    0.51
   2  -1 -27   -0.16    1.25
  -2   1  27    0.08    0.50
   2   1 -27    2.08    1.16
  -1  -1  27  135.98    4.34
   1  -1 -27  137.80    5.63
   1   1 -27  144.05    5.42
  -1   1  27  141.96    4.34
   0  -1  27   -0.51    0.54
   0  -1 -27   -1.36    0.96
   0  -1 -27    0.68    0.68
   0   1  27    0.47    0.56
   0   1 -27    0.60    0.94
  -1  -1 -27   22.62    2.24
  -1  -1 -27   25.76    1.61
  -1   1 -27   24.05    1.87
  -1   1 -27   25.02    1.47
  -2  -1 -27   39.39    2.85
  -2  -1 -27   41.60    2.18
  -2   1 -27   42.53    2.14
  -2   1 -27   42.24    2.49
  -3  -1 -27   10.89    1.90
  -3  -1 -27   12.98    1.43
  -3   1 -27   11.96    1.41
  -3   1 -27   12.14    1.56
  -4  -1 -27   29.01    1.86
  -4  -1 -27   32.31    3.05
  -4   1 -27   31.14    2.37
  -4   1 -27   29.31    2.37
  -5  -1 -27    2.70    1.68
  -5   1 -27    3.44    1.43
   6  -2 -27   -1.40    1.86
   5  -2 -27   13.86    2.21
   4  -2 -27    1.88    1.67
  -4   2  27    1.49    0.52
  -3  -2  27    1.66    0.41
   3  -2 -27    3.31    1.52
  -3   2  27    1.57    0.56
   2  -2 -27   -0.26    1.33
  -2  -2  27    0.62    0.51
  -2   2  27    0.54    0.52
   1  -2 -27    5.03    1.52
  -1  -2  27    7.79    0.84
   1   2 -27    7.87    1.11
  -1   2  27    8.13    0.83
   0  -2 -27   -1.78    1.25
   0  -2 -27    0.29    0.68
   0  -2  27    0.62    0.61
   0   2 -27    1.56    0.79
   0   2  27    0.68    0.57
  -1  -2 -27   24.78    1.59
   1  -2  27   22.80    1.45
  -1  -2 -27   22.43    2.43
  -1   2 -27   24.97    1.45
  -1   2 -27   26.09    1.70
  -2  -2 -27    3.61    1.42
  -2  -2 -27    3.23    0.94
  -2   2 -27    3.97    0.94
  -2   2 -27    2.88    0.93
  -3  -2 -27   12.52    1.28
  -3  -2 -27    9.43    1.95
  -3   2 -27   10.46    1.32
  -3   2 -27    9.63    1.38
  -4  -2 -27   11.20    2.33
  -4   2 -27   12.51    1.69
  -4   2 -27   12.09    1.58
  -5  -2 -27   -2.64    1.46
  -5   2 -27   -0.34    1.14
   6  -3 -27   32.10    3.37
   5  -3 -27   16.97    2.45
   4  -3 -27    7.87    2.02
  -4   3  27    4.63    0.70
   3  -3 -27   21.83    2.34
  -3   3  27   19.84    1.24
   2  -3 -27    0.85    1.56
  -2  -3  27    1.17    0.51
  -2   3  27    1.22    0.60
   1  -3 -27   66.62    3.65
  -1  -3  27   64.52    2.38
  -1   3  27   64.10    2.37
   0  -3 -27   -0.67    1.43
   0  -3 -27   -0.25    0.66
   0  -3  27    0.38    0.61
   1  -3  27   51.26    2.19
  -1  -3 -27   50.90    3.53
  -1  -3 -27   49.97    2.29
  -2  -3 -27    3.76    1.01
  -2  -3 -27    4.58    1.63
  -2   3 -27    4.80    0.98
  -3  -3 -27    9.04    1.03
  -3  -3 -27    8.25    1.94
  -3   3 -27    8.08    1.19
  -3   3 -27    7.63    1.16
  -4  -3 -27   28.13    3.27
  -4   3 -27   26.88    2.02
  -4   3 -27   36.56    2.70
  -5  -3 -27   -1.97    1.48
  -5   3 -27   -0.63    1.01
   6  -4 -27    3.26    2.18
   5  -4 -27    8.46    2.23
   4  -4 -27   11.25    2.20
  -4   4  27   10.50    0.96
   3  -4 -27    8.54    1.84
  -3   4  27    8.99    0.93
  -2  -4  27    5.21    0.68
   2  -4 -27    5.36    1.69
  -2   4  27    5.30    0.75
   1  -4 -27   31.94    2.81
  -1  -4  27   33.86    1.59
  -1   4  27   33.57    1.61
   0  -4  27   11.33    1.10
   0  -4 -27    9.44    1.94
   0  -4 -27   10.21    1.08
  -1  -4 -27    0.07    1.36
   1  -4  27    1.83    0.77
  -1  -4 -27    1.95    0.83
  -2  -4 -27    2.50    0.93
  -2  -4 -27    1.99    1.52
  -2   4 -27    1.78    0.83
  -3  -4 -27   28.30    2.95
  -3  -4 -27   26.03    1.44
  -3   4 -27   26.98    1.78
  -4  -4 -27   -1.10    1.43
  -4   4 -27    1.11    1.24
   6  -5 -27   -0.19    2.10
   5  -5 -27    2.26    2.07
   4  -5 -27   22.89    2.64
  -4   5  27   20.15    1.38
   3  -5 -27    7.33    1.94
  -3   5  27    7.37    0.90
  -2  -5  27   31.32    1.42
   2  -5 -27   30.63    2.85
  -2   5  27   33.26    1.63
  -1  -5  27   29.31    1.50
   1  -5 -27   25.20    2.57
   1  -5 -27   29.80    1.73
  -1   5  27   30.52    1.55
   0  -5 -27    6.10    1.91
   0  -5 -27    8.21    1.06
   0  -5  27    8.06    0.97
  -1  -5 -27    2.80    0.91
  -1  -5 -27   -0.25    1.55
   1  -5  27    1.54    0.76
  -2  -5 -27    0.60    0.82
  -2  -5 -27   -0.72    1.33
  -2   5 -27    0.63    0.74
  -3  -5 -27    3.73    1.61
  -3  -5 -27    4.78    0.55
  -3   5 -27    4.70    1.00
  -4  -5 -27    3.49    1.67
  -4   5 -27    4.00    1.39
  -5  -5 -27    5.38    1.94
   5  -6 -27   27.77    3.04
  -5   6  27   26.95    1.45
   4  -6 -27    6.81    2.16
  -4   6  27    4.93    0.90
   3  -6 -27    0.50    1.77
  -3   6  27    0.47    0.69
   2  -6 -27    0.70    1.63
  -2   6  27    1.82    0.73
  -1  -6  27    3.01    0.72
   1  -6 -27    1.25    0.86
   1  -6 -27    0.83    1.61
   0  -6 -27    3.26    1.88
   0  -6 -27    6.20    1.03
   0  -6  27    5.25    0.91
  -1  -6 -27   85.07    4.81
  -1  -6 -27   78.45    3.22
   1  -6  27   75.92    3.05
  -2  -6 -27   23.67    1.70
   2  -6  27   25.00    1.80
  -2  -6 -27   28.65    2.83
  -3  -6 -27   16.57    2.39
  -3   6 -27   15.46    1.50
  -4  -6 -27   22.86    2.82
  -4   6 -27   30.43    2.53
   5  -7 -27   -1.62    2.05
  -5   7  27   -0.18    0.63
   4  -7 -27   28.83    3.31
  -4   7  27   24.71    1.64
   3  -7 -27    0.60    1.70
  -3   7  27    0.12    0.71
   2  -7 -27    4.14    1.77
  -2   7  27    5.27    0.88
   1  -7 -27   28.07    1.83
   1  -7 -27   28.43    2.90
  -1  -7  27   29.76    1.57
   0  -7  27   25.64    1.63
   0  -7 -27   29.14    1.85
   0  -7 -27   27.14    3.07
   1  -7  27   12.87    1.31
  -1  -7 -27   16.68    2.35
  -1  -7 -27   14.37    1.45
   2  -7  27    1.09    0.96
  -2  -7 -27    0.98    0.70
  -2  -7 -27    0.70    1.26
  -3  -7 -27   25.73    2.72
  -3   7 -27   27.82    2.29
  -4  -7 -27   -1.34    1.23
  -4   7 -27    1.37    1.23
   5  -8 -27    1.09    2.30
   4  -8 -27   13.09    2.43
  -4   8  27   10.69    1.18
   3  -8 -27   33.33    3.27
  -3   8  27   29.91    1.76
   2  -8 -27    5.42    1.76
  -2   8  27    3.71    0.87
   1  -8 -27   20.08    1.74
  -1  -8  27   20.02    1.34
   1  -8 -27   20.91    2.38
   0  -8  27   24.12    1.63
   0  -8 -27   28.13    2.99
   0  -8 -27   24.04    1.80
  -1  -8 -27   16.77    2.40
  -1  -8 -27   16.28    1.52
   1  -8  27   12.26    1.34
  -2  -8 -27    9.55    1.91
   2  -8  27    9.25    1.36
  -2  -8 -27    9.37    0.88
  -3  -8 -27   15.75    2.39
  -3   8 -27   18.51    1.86
  -4  -8 -27    5.33    1.77
   4  -9 -27    0.91    1.89
   3  -9 -27   19.17    2.30
  -3   9  27   15.42    1.45
   2  -9 -27   18.34    1.68
   2  -9 -27   22.63    2.60
   1  -9 -27    7.04    1.74
   1  -9 -27    5.28    1.13
  -1  -9  27    6.83    0.82
   0  -9 -27    1.65    0.93
   0  -9  27    0.36    0.81
   0  -9 -27    0.92    1.43
   1  -9  27   32.78    2.09
  -1  -9 -27   39.19    3.17
  -1  -9 -27   34.75    2.07
  -2  -9 -27    7.92    1.83
   2  -9  27    4.77    1.26
   3 -10 -27    7.15    1.80
  -3  10  27    2.50    0.91
   2 -10 -27    1.12    1.10
   2 -10 -27    3.20    1.49
   1 -10 -27    5.41    1.17
   0 -10  27    0.76    0.85
   0 -10 -27    1.84    0.95
   1 -10  27   26.80    1.95
  -1 -10 -27   28.86    1.75
   2 -10  27   21.40    1.99
   0 -11  27   18.41    1.52
   0 -11 -27   20.14    1.79
   6   0 -28   10.34    2.22
   5   0 -28   10.96    2.04
   4   0 -28   10.85    1.94
  -3   0  28    0.36    0.52
   3   0 -28    0.27    1.34
   2   0 -28    8.07    1.49
  -2   0  28    7.81    0.82
   1   0 -28    1.17    1.15
  -1   0  28    1.47    0.60
   0   0 -28   44.45    2.67
   0   0  28   44.28    1.90
  -1   0 -28  189.19    5.82
  -1   0 -28  185.63    7.25
  -3   0 -28    9.68    1.69
  -3   0 -28   11.41    1.40
  -4   0 -28   21.43    2.38
  -4   0 -28   23.95    2.11
  -5   0 -28    0.76    1.46
   6  -1 -28    3.55    2.00
   5  -1 -28    5.63    1.91
   4  -1 -28    1.14    1.64
   4   1 -28   -0.19    1.46
  -3  -1  28   57.93    2.10
   3  -1 -28   56.81    3.39
  -3   1  28   61.36    2.19
   3   1 -28   59.70    3.21
   2  -1 -28    3.01    1.40
  -2  -1  28    2.05    0.57
   2   1 -28    2.08    1.16
  -2   1  28    1.67    0.57
  -1  -1  28    4.81    0.75
   1  -1 -28    4.20    1.36
  -1   1  28    5.43    0.76
   1   1 -28    4.90    1.14
   0  -1  28   14.63    1.18
   0  -1 -28   15.77    1.87
   0  -1 -28   15.39    1.30
   0   1 -28   16.85    1.66
   0   1  28   15.60    1.18
  -1  -1 -28    6.06    1.51
  -1  -1 -28    7.41    1.01
  -1   1 -28    8.00    1.27
  -1   1 -28    6.48    0.92
  -2  -1 -28    4.80    0.99
  -2  -1 -28    5.38    1.44
  -2   1 -28    6.05    1.05
  -2   1 -28    5.17    1.19
  -3  -1 -28    1.99    1.41
  -3  -1 -28    2.93    0.98
  -3   1 -28    3.48    1.23
  -3   1 -28    4.31    1.05
  -4  -1 -28   37.22    3.29
  -4  -1 -28   37.62    2.10
  -4   1 -28   38.75    2.68
  -4   1 -28   38.17    2.61
  -5  -1 -28   -0.26    1.56
  -5   1 -28    0.83    1.29
   6  -2 -28    4.52    2.03
   5  -2 -28   44.12    3.45
   4  -2 -28   14.68    2.15
  -4   2  28   13.31    0.97
  -3  -2  28    0.75    0.41
   3  -2 -28   -0.43    1.43
  -3   2  28    0.78    0.55
   2  -2 -28   70.75    3.69
  -2  -2  28   69.31    2.45
  -2   2  28   69.22    2.49
   1  -2 -28   50.15    3.08
  -1  -2  28   49.28    2.01
  -1   2  28   50.10    1.99
   0  -2 -28    3.25    1.35
   0  -2  28    4.45    0.82
   0  -2 -28    5.21    0.91
   0   2 -28    4.69    0.97
  -1  -2 -28    0.94    1.41
  -1  -2 -28    0.95    0.78
   1  -2  28    1.01    0.70
  -1   2 -28    1.13    0.71
  -1   2 -28    1.61    0.83
  -2  -2 -28   18.31    1.62
  -2  -2 -28   17.10    2.14
  -2   2 -28   19.02    1.61
  -2   2 -28   15.28    1.41
  -3  -2 -28   35.77    2.05
  -3  -2 -28   35.34    3.16
  -3   2 -28   34.69    2.29
  -3   2 -28   35.81    2.14
  -4  -2 -28    2.07    1.73
  -4   2 -28    0.26    1.07
  -4   2 -28    2.60    1.23
  -5  -2 -28    9.73    2.41
  -5   2 -28    9.73    1.64
   6  -3 -28    3.81    2.09
   5  -3 -28   30.05    3.24
   4  -3 -28    3.04    1.82
  -4   3  28    1.21    0.58
   3  -3 -28    4.04    1.74
  -3   3  28    3.81    0.72
  -2  -3  28    5.92    0.74
   2  -3 -28    5.24    1.64
  -2   3  28    6.08    0.80
  -1  -3  28  115.45    3.74
   1  -3 -28  115.70    5.14
  -1   3  28  113.00    3.72
   0  -3 -28    0.42    0.71
   0  -3 -28   -2.14    1.20
   0  -3  28   -0.04    0.63
  -1  -3 -28    4.41    0.93
   1  -3  28    5.22    0.87
  -1  -3 -28    2.05    1.38
  -2  -3 -28   77.36    4.57
  -2  -3 -28   79.70    3.31
  -2   3 -28   80.47    3.12
  -3  -3 -28    5.78    1.89
  -3  -3 -28    6.38    0.97
  -3   3 -28    5.57    1.09
  -4  -3 -28    0.15    1.64
  -4   3 -28    4.83    1.43
  -4   3 -28    2.56    1.06
   6  -4 -28    9.20    2.42
   5  -4 -28    3.00    2.06
   4  -4 -28   15.00    2.36
  -4   4  28   12.87    1.14
   3  -4 -28    0.11    1.66
  -3   4  28    0.24    0.61
   2  -4 -28   11.71    1.87
  -2  -4  28   11.27    0.98
  -2   4  28   10.57    0.98
   1  -4 -28    0.38    1.46
  -1  -4  28    1.74    0.65
  -1   4  28    3.13    0.73
   0  -4 -28   65.06    2.59
   0  -4  28   65.46    2.55
   0  -4 -28   63.44    3.79
  -1  -4 -28   29.46    3.01
  -1  -4 -28   28.69    1.82
   1  -4  28   28.39    1.73
  -2  -4 -28    0.63    1.47
  -2  -4 -28    1.51    0.89
  -2   4 -28    0.37    0.81
  -3  -4 -28    1.57    0.62
  -3  -4 -28   -0.70    1.34
  -3   4 -28    0.59    0.82
  -4  -4 -28    3.04    1.84
  -4   4 -28    3.13    1.42
  -5  -4 -28   -1.24    1.61
   5  -5 -28    4.06    2.16
   4  -5 -28    0.01    1.82
  -4   5  28    0.71    0.69
   3  -5 -28  103.99    5.06
  -3   5  28  101.98    3.49
   2  -5 -28   -0.03    1.54
  -2  -5  28    0.92    0.52
  -2   5  28    0.75    0.69
   1  -5 -28   23.93    1.60
  -1  -5  28   23.34    1.39
   1  -5 -28   24.70    2.56
  -1   5  28   23.92    1.44
   0  -5  28   47.01    2.09
   0  -5 -28   40.47    3.47
   0  -5 -28   49.48    2.23
  -1  -5 -28   21.14    2.66
  -1  -5 -28   20.61    1.67
   1  -5  28   20.21    1.56
  -2  -5 -28   17.00    1.60
  -2  -5 -28   16.14    2.49
  -2   5 -28   15.66    1.40
  -3  -5 -28    1.50    0.45
  -3  -5 -28    2.06    1.50
  -3   5 -28    0.55    0.84
  -4  -5 -28   50.11    4.01
  -4   5 -28   60.24    3.44
  -5  -5 -28   -1.95    1.54
   5  -6 -28    0.87    2.12
  -5   6  28   -0.27    0.56
   4  -6 -28    8.72    2.19
  -4   6  28    9.27    1.06
   3  -6 -28    2.00    1.80
  -3   6  28    1.21    0.73
   2  -6 -28    9.51    1.96
  -2   6  28    9.17    1.04
   1  -6 -28    9.36    1.16
  -1  -6  28   11.75    1.14
   1  -6 -28    7.64    1.88
   0  -6 -28   -1.43    1.64
   0  -6 -28    0.71    0.85
   0  -6  28   -0.06    0.73
  -1  -6 -28    1.23    1.58
  -1  -6 -28    1.05    0.88
   1  -6  28    1.28    0.83
  -2  -6 -28    0.52    0.79
  -2  -6 -28    1.03    1.37
   2  -6  28   -0.04    0.86
  -3  -6 -28    6.71    1.77
  -3   6 -28    4.83    1.04
  -4  -6 -28   -0.87    1.35
  -4   6 -28    2.99    1.29
   5  -7 -28   41.98    3.99
   4  -7 -28    0.66    1.97
  -4   7  28    0.75    0.80
   3  -7 -28   35.61    3.21
  -3   7  28   34.92    1.85
   2  -7 -28    1.91    1.65
  -2   7  28    1.05    0.75
  -1  -7  28   51.83    2.15
   1  -7 -28   51.41    2.42
   1  -7 -28   50.70    3.50
   0  -7 -28    4.10    1.02
   0  -7 -28    1.27    1.74
   0  -7  28    1.51    0.81
   1  -7  28    5.25    1.08
  -1  -7 -28    7.66    2.02
  -1  -7 -28    5.30    1.12
  -2  -7 -28   76.80    4.56
   2  -7  28   71.32    3.14
  -2  -7 -28   74.63    2.89
  -3  -7 -28   -1.34    1.17
  -3   7 -28    0.53    1.13
  -4  -7 -28   17.70    2.64
  -4   7 -28   20.77    2.39
   4  -8 -28    3.44    2.00
  -4   8  28    0.71    0.83
   3  -8 -28    1.20    1.76
  -3   8  28    0.58    0.78
   2  -8 -28    3.35    1.65
  -2   8  28    2.08    0.84
  -1  -8  28    2.39    0.74
   1  -8 -28    1.08    1.54
   1  -8 -28    1.88    0.97
   0  -8 -28    1.47    0.93
   0  -8  28    0.59    0.81
   0  -8 -28    0.37    1.59
   1  -8  28   -1.11    0.85
  -1  -8 -28    0.85    1.46
  -1  -8 -28    0.25    0.86
  -2  -8 -28    1.13    0.60
  -2  -8 -28    1.74    1.45
   2  -8  28    0.71    1.02
  -3  -8 -28    3.94    1.68
  -3   8 -28    6.33    1.40
   4  -9 -28    5.28    2.02
   3  -9 -28   24.19    2.56
  -3   9  28   19.47    1.57
   2  -9 -28    2.31    1.13
   2  -9 -28    5.33    1.72
  -1  -9  28   17.47    1.18
   1  -9 -28   18.34    2.25
   1  -9 -28   17.26    1.54
   0  -9 -28   10.30    1.89
   0  -9  28    8.54    1.15
   0  -9 -28   11.14    1.31
  -1  -9 -28    4.16    1.01
   1  -9  28    3.68    1.10
  -1  -9 -28    5.63    1.72
   2  -9  28   14.38    1.59
  -2  -9 -28   18.63    2.56
   3 -10 -28    5.93    1.76
   2 -10 -28   12.31    1.53
   2 -10 -28   20.67    2.33
   1 -10 -28    6.89    1.21
   1 -10 -28    9.53    1.77
   0 -10  28    4.67    1.02
   0 -10 -28    4.91    1.07
   1 -10  28    2.41    1.05
  -1 -10 -28    2.05    0.82
   6   0 -29    1.25    1.88
   5   0 -29    2.31    1.75
   4   0 -29    2.16    1.59
  -3   0  29    1.40    0.55
   2   0 -29    0.57    1.23
  -2   0  29   -0.14    0.54
  -1   0  29   13.26    1.10
   0   0  29   -0.11    0.61
   0   0 -29    0.58    1.13
  -1   0 -29   -0.96    0.93
  -1   0 -29    2.05    0.80
  -2   0 -29    0.31    1.06
  -2   0 -29    0.77    0.80
  -3   0 -29    0.78    0.92
  -3   0 -29   -2.28    1.04
  -4   0 -29   -0.39    1.19
  -4   0 -29    2.05    1.04
  -5   0 -29   -0.87    1.34
   6  -1 -29    1.42    1.86
   5  -1 -29   24.89    2.68
   4  -1 -29    2.02    1.61
   4   1 -29    1.38    1.56
  -3  -1  29   56.87    2.11
   3  -1 -29   57.20    3.38
   3   1 -29   58.80    3.31
  -3   1  29   59.80    2.20
   2  -1 -29   15.39    1.80
  -2  -1  29   16.86    1.15
  -2   1  29   16.26    1.14
   2   1 -29   18.43    1.86
   1  -1 -29    4.66    1.41
  -1  -1  29    4.30    0.76
  -1   1  29    4.84    0.76
   1   1 -29    6.09    1.19
   0  -1 -29   41.75    2.83
   0  -1  29   42.11    1.91
   0   1  29   44.01    1.92
   0   1 -29   46.67    2.47
  -1  -1 -29    4.05    1.35
  -1  -1 -29    5.39    0.94
  -1   1 -29    4.28    1.15
  -1   1 -29    6.51    0.95
  -2  -1 -29   91.12    3.52
  -2  -1 -29   84.99    4.45
  -2   1 -29   88.38    4.07
  -2   1 -29   90.77    3.46
  -3  -1 -29   -0.16    0.84
  -3  -1 -29   -0.18    1.29
  -3   1 -29    0.48    0.90
  -3   1 -29   -0.04    1.08
  -4  -1 -29   36.68    2.11
  -4  -1 -29   30.89    3.17
  -4   1 -29   31.92    2.51
  -4   1 -29   29.54    2.52
  -5  -1 -29   14.47    2.51
  -5   1 -29   10.50    1.84
   6  -2 -29    1.40    1.96
   5  -2 -29    3.54    1.95
   4  -2 -29    3.40    1.72
  -4   2  29    1.71    0.55
   3  -2 -29    5.04    1.71
  -3  -2  29    5.01    0.59
  -3   2  29    5.89    0.78
   2  -2 -29   21.78    2.14
  -2  -2  29   22.22    1.26
  -2   2  29   19.88    1.27
   1  -2 -29    2.55    1.44
  -1  -2  29    3.55    0.74
  -1   2  29    2.74    0.68
   0  -2 -29   13.52    1.96
   0  -2  29   15.21    1.26
   0  -2 -29   13.77    1.35
   0   2 -29   17.39    1.54
  -1  -2 -29    0.57    1.32
  -1  -2 -29    1.83    0.84
   1  -2  29    1.26    0.76
  -1   2 -29    1.53    0.74
  -1   2 -29    1.57    0.85
  -2  -2 -29    4.22    1.03
  -2  -2 -29    5.17    1.56
  -2   2 -29    5.37    1.09
  -2   2 -29    4.48    1.02
  -3  -2 -29    0.90    0.83
  -3  -2 -29   -0.27    1.41
  -3   2 -29   -0.08    1.00
  -3   2 -29   -0.08    0.83
  -4  -2 -29    1.11    1.72
  -4   2 -29    4.43    1.33
  -4   2 -29    0.25    1.04
  -5  -2 -29   -1.62    1.66
  -5   2 -29    0.45    1.26
   6  -3 -29    3.48    2.16
   5  -3 -29   12.13    2.35
   4  -3 -29    0.74    1.68
  -4   3  29    0.17    0.56
   3  -3 -29    7.46    1.88
  -3   3  29    5.69    0.80
  -2  -3  29    4.00    0.68
   2  -3 -29    3.97    1.55
  -2   3  29    3.96    0.75
   1  -3 -29   33.59    2.57
  -1  -3  29   35.50    1.70
  -1   3  29   34.78    1.67
   0  -3 -29   62.61    3.86
   0  -3  29   68.77    2.61
   0  -3 -29   68.72    2.67
   1  -3  29   14.16    1.28
  -1  -3 -29   15.08    2.29
  -1  -3 -29   12.56    1.26
  -2  -3 -29   38.88    2.23
  -2  -3 -29   36.82    3.25
  -2   3 -29   38.67    2.09
  -3  -3 -29    4.89    0.93
  -3  -3 -29    4.60    1.79
  -3   3 -29    5.49    1.13
  -4  -3 -29    8.03    2.19
  -4   3 -29   10.89    1.78
  -5  -3 -29   -2.79    1.61
   6  -4 -29    2.80    2.34
   5  -4 -29   25.54    2.93
   4  -4 -29   15.84    2.29
  -4   4  29   14.44    1.20
   3  -4 -29    2.98    1.68
  -3   4  29    2.34    0.71
   2  -4 -29   60.31    3.51
  -2  -4  29   52.61    2.10
  -2   4  29   56.68    2.25
   1  -4 -29    2.39    1.58
  -1  -4  29    2.44    0.70
  -1   4  29    2.10    0.72
   0  -4 -29    5.90    0.97
   0  -4  29    7.61    1.01
   0  -4 -29    4.37    1.77
  -1  -4 -29    4.24    0.96
  -1  -4 -29    1.94    1.59
   1  -4  29    4.08    0.96
  -2  -4 -29   28.65    2.01
  -2  -4 -29   32.13    3.09
  -2   4 -29   30.72    1.86
  -3  -4 -29    7.54    0.90
  -3  -4 -29    8.59    2.09
  -3   4 -29    5.92    1.10
  -4  -4 -29   13.62    2.55
  -4   4 -29   18.84    2.21
  -5  -4 -29    1.38    1.82
   5  -5 -29   18.13    2.71
   4  -5 -29   22.21    2.70
  -4   5  29   17.79    1.36
   3  -5 -29    9.09    2.04
  -3   5  29    7.88    0.96
   2  -5 -29   17.78    2.21
  -2  -5  29   15.39    1.08
  -2   5  29   16.97    1.32
  -1  -5  29    1.58    0.69
   1  -5 -29    0.89    1.58
   1  -5 -29    2.68    0.88
  -1   5  29    1.89    0.74
   0  -5 -29   -1.15    1.61
   0  -5 -29    1.03    0.83
   0  -5  29    0.74    0.74
   1  -5  29    1.96    0.85
  -1  -5 -29    1.01    1.62
  -1  -5 -29    2.92    0.94
  -2  -5 -29   12.62    2.30
  -2  -5 -29   10.87    1.34
  -2   5 -29   11.15    1.19
  -3  -5 -29    9.41    2.11
  -3  -5 -29    6.41    0.65
  -3   5 -29    6.55    1.15
  -4  -5 -29   11.20    2.34
  -4   5 -29   10.04    1.77
   5  -6 -29    3.21    2.21
  -5   6  29    2.29    0.62
   4  -6 -29    7.64    2.20
  -4   6  29    5.95    0.97
   3  -6 -29    7.48    2.02
  -3   6  29    6.60    0.96
   2  -6 -29   40.49    3.15
  -2   6  29   40.53    1.94
   1  -6 -29   22.44    2.44
  -1  -6  29   20.64    1.38
   1  -6 -29   17.93    1.57
   0  -6 -29   54.82    3.93
   0  -6  29   51.52    2.32
   0  -6 -29   53.65    2.44
   1  -6  29    0.41    0.83
  -1  -6 -29    1.62    1.67
  -1  -6 -29   -0.10    0.82
  -2  -6 -29    6.61    1.06
  -2  -6 -29    5.60    1.81
   2  -6  29    5.76    1.12
  -3  -6 -29    0.82    1.46
  -4  -6 -29   -0.58    1.43
  -4   6 -29    2.06    1.29
   5  -7 -29    5.18    2.27
   4  -7 -29    6.61    2.26
  -4   7  29    6.73    1.05
   3  -7 -29    0.93    1.72
  -3   7  29   -0.61    0.73
   2  -7 -29   40.54    3.14
  -2   7  29   37.19    1.92
   1  -7 -29    0.49    0.90
   1  -7 -29    0.35    1.51
  -1  -7  29   -0.30    0.67
   0  -7 -29   -0.88    1.62
   0  -7  29    1.28    0.81
   0  -7 -29    2.34    0.94
  -1  -7 -29   23.52    2.82
   1  -7  29   15.82    1.50
  -1  -7 -29   18.24    1.73
   2  -7  29    1.49    1.05
  -2  -7 -29    1.28    1.44
  -2  -7 -29    1.77    0.76
  -3  -7 -29   -0.09    1.35
  -3   7 -29    1.68    1.18
  -4  -7 -29    1.00    1.56
   4  -8 -29   12.21    2.37
  -4   8  29    9.00    1.14
   3  -8 -29   15.64    2.29
  -3   8  29   13.24    1.25
   2  -8 -29   44.85    3.19
  -2   8  29   34.03    1.94
   1  -8 -29   -0.20    1.51
  -1  -8  29    0.14    0.66
   1  -8 -29    1.38    0.97
   0  -8  29    9.08    1.16
   0  -8 -29    8.99    1.20
   0  -8 -29    7.01    1.89
  -1  -8 -29    3.67    1.02
   1  -8  29    3.91    1.09
  -1  -8 -29    5.62    1.85
  -2  -8 -29   18.72    2.57
  -2  -8 -29   18.56    1.19
   2  -8  29   15.32    1.65
  -3  -8 -29    0.67    1.40
  -3   8 -29    0.78    1.19
   3  -9 -29    4.78    1.76
  -3   9  29    1.09    0.85
   2  -9 -29    3.18    1.61
   2  -9 -29    1.44    1.10
   1  -9 -29   22.91    1.89
   1  -9 -29   25.44    2.68
   0  -9 -29   25.53    2.86
   0  -9 -29   25.98    1.88
   0  -9  29   27.92    1.75
   1  -9  29    9.67    1.37
  -1  -9 -29   12.04    2.13
  -1  -9 -29    9.64    1.25
  -2  -9 -29   12.67    2.19
   2  -9  29   13.09    1.57
   2 -10 -29    2.40    1.21
   2 -10 -29    7.09    1.65
   1 -10 -29   29.39    2.08
   0 -10  29   38.28    2.03
   0 -10 -29   38.86    2.14
  -1 -10 -29    2.20    0.79
   1 -10  29    1.84    1.12
   6   0 -30   27.05    3.06
   5   0 -30    6.86    1.99
   4   0 -30    1.28    1.61
   3   0 -30    4.80    1.60
  -3   0  30    4.13    0.70
   2   0 -30  245.15    8.94
  -2   0  30  243.84    7.20
  -1   0  30   11.54    1.14
   1   0 -30   13.99    1.62
   0   0 -30    0.11    1.10
   0   0  30    0.34    0.63
  -1   0 -30   72.09    2.83
  -1   0 -30   72.45    3.61
  -2   0 -30    0.55    0.84
  -2   0 -30   -0.22    1.08
  -3   0 -30    0.30    0.91
  -3   0 -30   -0.67    1.16
  -4   0 -30   -1.29    1.15
  -4   0 -30    1.54    1.05
  -5   0 -30   40.98    3.29
   6  -1 -30    5.09    2.07
   5  -1 -30   16.40    2.41
   4  -1 -30    1.88    1.63
   3  -1 -30   10.31    1.83
  -3  -1  30   10.39    0.90
   3   1 -30   12.19    1.77
  -3   1  30   10.53    0.96
   2  -1 -30   10.81    1.69
  -2  -1  30    9.34    0.92
   2   1 -30   11.56    1.52
  -2   1  30    8.19    0.88
   1  -1 -30   19.36    2.07
  -1  -1  30   17.51    1.26
  -1   1  30   17.19    1.26
   1   1 -30   20.40    1.84
   0  -1  30    4.01    0.83
   0  -1 -30    2.42    1.30
   0   1 -30    4.06    1.09
   0   1  30    2.86    0.75
  -1  -1 -30    8.99    1.09
  -1  -1 -30    7.19    1.60
  -1   1 -30   10.28    1.10
  -1   1 -30   11.48    1.46
  -2  -1 -30   31.48    2.04
  -2  -1 -30   33.33    2.73
  -2   1 -30   36.37    2.05
  -2   1 -30   33.92    2.40
  -3  -1 -30   -0.32    1.25
  -3  -1 -30    1.12    0.93
  -3   1 -30    1.56    0.94
  -3   1 -30    0.51    1.12
  -4  -1 -30    5.28    1.86
  -4   1 -30    6.55    1.44
  -4   1 -30    5.39    1.49
  -5  -1 -30    7.62    2.11
  -5   1 -30    6.40    1.68
   6  -2 -30    0.89    1.97
   5  -2 -30    3.80    1.99
   4  -2 -30   96.05    4.78
  -4   2  30   88.84    3.02
   3  -2 -30    2.37    1.65
  -3  -2  30   -0.28    0.41
  -3   2  30    0.31    0.59
  -2  -2  30   14.34    1.12
   2  -2 -30   14.53    1.93
  -2   2  30   14.78    1.20
   1  -2 -30    9.94    1.68
  -1  -2  30    9.18    0.98
  -1   2  30    8.59    0.94
   0  -2 -30   58.61    2.49
   0  -2 -30   60.08    3.56
   0  -2  30   62.73    2.47
  -1  -2 -30   -0.63    1.23
  -1  -2 -30    0.71    0.81
   1  -2  30    1.04    0.76
  -1   2 -30    1.92    0.86
  -1   2 -30    1.31    0.76
  -2  -2 -30    1.67    0.89
  -2  -2 -30    0.86    1.37
  -2   2 -30    1.55    0.88
  -2   2 -30    2.17    0.97
  -3  -2 -30   87.10    4.89
  -3  -2 -30   83.44    3.39
  -3   2 -30   82.51    3.82
  -3   2 -30   79.90    3.45
  -4  -2 -30    6.24    2.13
  -4   2 -30   10.05    1.68
  -4   2 -30    8.93    1.51
  -5  -2 -30   -0.43    1.75
  -5   2 -30   -0.82    1.20
   6  -3 -30    1.07    2.04
   5  -3 -30    0.74    1.97
   4  -3 -30    2.71    1.81
  -4   3  30    0.14    0.58
   3  -3 -30   12.49    2.05
  -3   3  30   12.30    1.15
   2  -3 -30    2.68    1.56
  -2   3  30    2.55    0.70
  -1  -3  30   13.87    1.22
   1  -3 -30   12.45    1.83
  -1   3  30   13.02    1.18
   0  -3 -30   83.10    3.07
   0  -3 -30   75.44    4.30
   0  -3  30   82.73    3.01
  -1  -3 -30    8.21    1.13
  -1  -3 -30    6.87    1.83
   1  -3  30    7.23    1.07
  -2  -3 -30    5.20    1.76
  -2  -3 -30    3.36    1.01
  -2   3 -30    6.25    1.11
  -3  -3 -30    0.98    0.75
  -3  -3 -30    0.18    1.50
  -3   3 -30    1.03    0.91
  -4  -3 -30   19.47    3.03
  -4   3 -30   24.43    2.38
  -5  -3 -30    2.79    2.29
   5  -4 -30    9.04    2.35
   4  -4 -30    1.88    1.93
  -4   4  30    0.10    0.64
   3  -4 -30    4.84    1.88
  -3   4  30    5.21    0.85
  -2  -4  30   41.00    1.77
   2  -4 -30   43.02    3.06
  -2   4  30   41.40    1.92
   1  -4 -30    4.65    1.68
  -1  -4  30    6.14    0.87
  -1   4  30    5.63    0.88
   0  -4 -30    2.85    0.91
   0  -4  30    2.18    0.82
   0  -4 -30    0.01    1.61
   1  -4  30   26.40    1.75
  -1  -4 -30   26.34    2.89
  -1  -4 -30   25.52    1.79
  -2  -4 -30    0.36    1.47
  -2  -4 -30    0.41    0.85
  -2   4 -30    0.95    0.86
  -3  -4 -30   -0.35    0.58
  -3  -4 -30    1.86    1.63
  -3   4 -30   -0.38    0.81
  -4   4 -30    1.10    1.28
   5  -5 -30   33.20    3.52
   4  -5 -30    2.63    1.95
  -4   5  30   -0.57    0.67
   3  -5 -30    5.09    1.88
  -3   5  30    3.21    0.83
   2  -5 -30   24.77    2.64
  -2  -5  30   20.18    1.21
  -2   5  30   21.14    1.48
  -1  -5  30    3.89    0.81
   1  -5 -30    4.44    1.66
  -1   5  30    6.51    0.95
   0  -5  30   22.60    1.59
   0  -5 -30   24.68    1.70
   0  -5 -30   26.16    2.89
  -1  -5 -30    0.52    0.83
   1  -5  30    1.13    0.84
  -1  -5 -30    0.94    1.67
  -2  -5 -30  104.45    3.89
  -2  -5 -30  105.43    5.56
  -2   5 -30   91.09    3.53
  -3  -5 -30   -0.31    1.51
  -3  -5 -30    1.64    0.49
  -3   5 -30    1.19    0.93
  -4  -5 -30   -1.12    1.52
  -4   5 -30    0.90    1.24
   5  -6 -30    3.57    2.18
   4  -6 -30    9.75    2.32
  -4   6  30    7.26    1.03
   3  -6 -30    8.19    2.00
  -3   6  30    5.80    0.99
   2  -6 -30    3.50    1.66
  -2   6  30    2.95    0.83
  -1  -6  30    1.17    0.70
   1  -6 -30   -0.38    0.85
   1  -6 -30    0.62    1.53
   0  -6 -30    6.52    1.07
   0  -6  30    3.99    0.94
   0  -6 -30    1.95    1.89
  -1  -6 -30   11.77    1.38
   1  -6  30   11.78    1.31
  -1  -6 -30   12.43    2.29
  -2  -6 -30    4.10    0.99
   2  -6  30    3.20    1.07
  -2  -6 -30    4.24    1.70
  -3  -6 -30    9.53    2.16
  -4  -6 -30    1.64    1.74
   4  -7 -30    4.34    2.06
  -4   7  30    0.48    0.79
   3  -7 -30   18.75    2.42
  -3   7  30   17.54    1.49
   2  -7 -30   13.98    2.08
  -2   7  30   16.29    1.43
  -1  -7  30    5.81    0.92
   1  -7 -30    5.78    1.11
   1  -7 -30    5.63    1.83
   0  -7  30   50.71    2.35
   0  -7 -30   50.16    3.83
   0  -7 -30   53.43    2.47
  -1  -7 -30    4.32    1.06
  -1  -7 -30    4.39    1.86
   1  -7  30    2.88    1.06
  -2  -7 -30   18.57    1.46
  -2  -7 -30   22.69    2.83
   2  -7  30   15.77    1.61
  -3  -7 -30    7.47    2.03
  -3   7 -30    7.70    1.49
   4  -8 -30    5.99    2.05
   3  -8 -30    2.53    1.78
  -3   8  30    1.00    0.84
   2  -8 -30    4.22    1.74
  -2   8  30    3.55    0.92
  -1  -8  30    5.93    0.88
   1  -8 -30    6.82    1.81
   1  -8 -30    5.03    1.13
   0  -8  30    5.75    1.06
   0  -8 -30    7.11    1.91
   0  -8 -30    8.41    1.21
   1  -8  30   -0.48    0.94
  -1  -8 -30    1.97    1.56
  -1  -8 -30    0.22    0.90
  -2  -8 -30    0.94    0.59
   2  -8  30    1.03    1.12
  -2  -8 -30    1.67    1.53
  -3  -8 -30   -0.51    1.43
   3  -9 -30    4.72    1.77
  -3   9  30    1.20    0.92
   2  -9 -30    4.00    1.21
   2  -9 -30    8.20    1.81
   1  -9 -30    4.63    1.65
   1  -9 -30    1.60    1.05
   0  -9 -30   24.81    2.67
   0  -9  30   19.48    1.62
   0  -9 -30   24.83    1.81
   1  -9  30    4.13    1.15
  -1  -9 -30    6.23    1.77
  -1  -9 -30    4.82    1.02
  -2  -9 -30   16.53    2.47
   2 -10 -30   23.94    2.64
   1 -10 -30   14.24    2.00
   1 -10 -30    8.52    1.47
   0 -10  30    5.54    1.13
   5   0 -31    1.28    1.79
   4   0 -31    0.13    1.54
   3   0 -31    1.89    1.47
  -3   0  31    0.28    0.56
   2   0 -31    0.97    1.23
  -2   0  31   -0.19    0.60
   1   0 -31    4.15    1.25
  -1   0  31    4.89    0.81
   0   0 -31    0.11    1.07
   0   0  31    0.35    0.68
  -1   0 -31    4.75    1.34
  -1   0 -31    6.55    0.99
  -2   0 -31   -0.99    1.04
  -2   0 -31    1.07    0.86
  -3   0 -31    0.15    0.90
  -3   0 -31   -0.51    1.16
  -4   0 -31    1.40    1.03
  -4   0 -31   -0.21    1.24
  -5   0 -31   -1.72    1.31
   6  -1 -31   19.86    2.62
   5  -1 -31   10.27    2.18
   4  -1 -31    2.88    1.71
   3  -1 -31    9.34    1.85
  -3  -1  31   10.21    0.91
   3   1 -31   10.27    1.74
  -3   1  31    9.60    0.97
   2  -1 -31   10.27    1.63
  -2  -1  31    7.88    0.90
  -2   1  31   11.13    1.09
   2   1 -31   10.21    1.43
   1  -1 -31    9.13    1.56
  -1  -1  31    7.99    0.96
  -1   1  31    8.50    0.95
   1   1 -31   11.02    1.38
   0  -1 -31   55.20    3.26
   0  -1  31   56.49    2.36
   0   1 -31   60.20    2.89
   0   1  31   56.15    2.34
  -1  -1 -31    5.95    1.01
  -1  -1 -31    4.82    1.46
  -1   1 -31    6.22    1.00
  -1   1 -31    5.32    1.21
  -2  -1 -31   15.81    1.53
  -2  -1 -31   17.93    2.19
  -2   1 -31   16.20    1.52
  -2   1 -31   16.74    1.92
  -3  -1 -31   14.16    2.12
  -3  -1 -31   15.97    1.58
  -3   1 -31   13.38    1.81
  -3   1 -31   15.11    1.60
  -4  -1 -31   -2.19    1.32
  -4   1 -31    0.82    1.12
  -4   1 -31   -0.46    1.19
  -5  -1 -31   18.77    3.07
  -5   1 -31   15.53    2.15
   5  -2 -31    4.17    2.03
   4  -2 -31    8.40    1.98
  -4   2  31    6.02    0.75
   3  -2 -31    1.65    1.60
  -3  -2  31    0.60    0.46
  -3   2  31    0.66    0.63
  -2  -2  31   13.71    1.15
   2  -2 -31   15.45    1.88
  -2   2  31   12.98    1.21
  -1  -2  31   10.14    1.04
   1  -2 -31   11.19    1.75
  -1   2  31   12.27    1.10
   0  -2  31   -0.33    0.70
   0  -2 -31    0.48    0.79
   0  -2 -31   -0.50    1.29
   1  -2  31   19.06    1.53
  -1  -2 -31   19.29    2.33
  -1  -2 -31   19.01    1.60
  -1   2 -31   19.29    1.67
  -2  -2 -31    1.54    0.92
  -2  -2 -31   -0.17    1.31
  -2   2 -31    0.98    0.96
  -2   2 -31    1.77    0.93
  -3  -2 -31    1.50    1.53
  -3  -2 -31    2.62    0.93
  -3   2 -31    1.14    1.09
  -3   2 -31    1.74    0.99
  -4  -2 -31    1.32    1.70
  -4   2 -31    3.74    1.35
  -4   2 -31    1.56    1.21
   5  -3 -31    2.41    2.02
   4  -3 -31   11.06    2.25
  -4   3  31   10.42    0.98
   3  -3 -31    4.15    1.78
  -3   3  31    1.88    0.73
  -2  -3  31   35.83    1.68
   2  -3 -31   38.67    2.84
  -2   3  31   37.04    1.78
  -1  -3  31   19.68    1.42
   1  -3 -31   20.25    2.38
  -1   3  31   22.00    1.43
   0  -3 -31   11.48    1.20
   0  -3  31    9.23    1.07
   0  -3 -31   10.71    2.02
   1  -3  31    1.92    0.86
  -1  -3 -31    3.41    0.94
  -1  -3 -31    1.90    1.49
  -2  -3 -31   11.58    2.11
  -2  -3 -31   10.73    1.34
  -2   3 -31   10.62    1.31
  -3  -3 -31    0.48    0.74
  -3  -3 -31   -0.88    1.45
  -3   3 -31   -0.27    0.88
  -4  -3 -31   -1.87    1.62
  -4   3 -31    2.05    1.34
   5  -4 -31    2.59    2.07
   4  -4 -31   31.75    3.24
  -4   4  31   26.27    1.53
   3  -4 -31   19.59    2.37
  -3   4  31   14.35    1.30
  -2  -4  31   21.03    1.31
   2  -4 -31   24.48    2.61
  -2   4  31   23.04    1.49
   1  -4 -31    2.81    1.53
  -1  -4  31    4.18    0.81
  -1   4  31    6.33    0.90
   0  -4  31   14.57    1.42
   0  -4 -31   14.85    2.31
   0  -4 -31   17.80    1.46
  -1  -4 -31   81.78    4.67
  -1  -4 -31   77.83    3.17
   1  -4  31   77.62    3.12
  -2  -4 -31   -0.74    1.30
  -2  -4 -31    0.88    0.88
  -2   4 -31   -0.10    0.84
  -3  -4 -31   28.76    1.57
  -3  -4 -31   32.73    3.30
  -3   4 -31   24.58    1.89
  -4  -4 -31    0.05    1.80
  -4   4 -31    7.35    1.66
   5  -5 -31    4.58    2.26
   4  -5 -31    4.99    2.11
  -4   5  31    3.40    0.84
   3  -5 -31    0.79    1.72
  -3   5  31    0.21    0.73
   2  -5 -31    1.67    1.60
  -2  -5  31    0.52    0.56
  -2   5  31   -0.06    0.73
   1  -5 -31    0.22    1.52
  -1  -5  31    0.05    0.69
  -1   5  31   -0.92    0.69
   0  -5 -31   15.20    1.41
   0  -5  31   13.37    1.28
   0  -5 -31   12.01    2.32
  -1  -5 -31   27.90    1.92
   1  -5  31   29.37    1.89
  -1  -5 -31   31.33    3.17
  -2  -5 -31   -0.45    0.80
  -2  -5 -31   -0.75    1.39
  -2   5 -31    0.10    0.81
  -3  -5 -31   14.93    2.56
  -3   5 -31   11.80    1.36
  -4  -5 -31   -1.61    1.55
   5  -6 -31   16.84    3.06
   4  -6 -31   37.86    3.57
  -4   6  31   36.75    1.91
   3  -6 -31    4.73    1.89
  -3   6  31    4.89    0.96
   2  -6 -31   42.17    3.15
  -2   6  31   34.66    1.90
  -1  -6  31   35.53    1.79
   1  -6 -31   31.98    2.00
   1  -6 -31   35.48    3.01
   0  -6 -31    0.66    0.88
   0  -6  31   -0.05    0.80
   0  -6 -31    0.11    1.70
  -1  -6 -31   24.36    1.87
   1  -6  31   25.47    1.87
  -1  -6 -31   29.53    3.18
  -2  -6 -31    7.38    2.06
   2  -6  31    6.16    1.25
  -2  -6 -31    6.52    1.10
  -3  -6 -31   29.81    3.24
   4  -7 -31   10.96    2.35
  -4   7  31    6.61    1.04
   3  -7 -31    3.01    1.79
  -3   7  31    1.35    0.85
   2  -7 -31   13.52    2.14
  -2   7  31   11.51    1.23
   1  -7 -31   15.40    2.22
  -1  -7  31   14.68    1.33
   1  -7 -31   16.06    1.47
   0  -7 -31    4.89    1.92
   0  -7  31    8.22    1.13
   0  -7 -31    6.21    1.12
  -1  -7 -31    8.66    2.13
  -1  -7 -31   11.25    1.35
   1  -7  31   10.35    1.34
  -2  -7 -31   -0.37    1.48
  -2  -7 -31    0.68    0.72
   2  -7  31   -0.56    1.00
  -3  -7 -31   14.43    2.51
  -3   7 -31   15.10    1.79
   3  -8 -31   17.03    2.35
  -3   8  31   16.26    1.54
   2  -8 -31   18.70    2.28
  -2   8  31   15.90    1.53
   1  -8 -31    2.63    1.62
   1  -8 -31    0.05    0.98
  -1  -8  31   -0.14    0.68
   0  -8 -31   20.06    2.51
   0  -8  31   18.18    1.61
   0  -8 -31   20.38    1.76
  -1  -8 -31   36.99    2.14
  -1  -8 -31   39.22    3.43
   1  -8  31   34.53    2.19
  -2  -8 -31   23.82    2.96
   2  -8  31   23.34    2.06
   3  -9 -31    4.63    1.78
   2  -9 -31   31.62    2.77
   2  -9 -31   24.39    2.08
   1  -9 -31   14.09    2.07
   1  -9 -31    9.90    1.36
   0  -9 -31    4.49    1.10
   0  -9  31    2.59    0.96
   0  -9 -31    3.08    1.55
  -1  -9 -31   17.72    2.46
   1  -9  31   14.21    1.57
  -1  -9 -31   17.82    1.56
  -2  -9 -31   10.16    2.15
   1 -10 -31   24.22    2.71
   0 -10 -31    5.72    1.58
   5   0 -32    2.69    1.80
   4   0 -32  135.98    5.96
  -3   0  32    3.26    0.72
   3   0 -32    3.70    1.53
  -2   0  32   12.51    1.10
   2   0 -32   13.18    1.67
   1   0 -32   92.52    4.01
  -1   0  32   86.45    3.17
   0   0  32   22.94    1.54
   0   0 -32   22.33    2.02
  -1   0 -32   35.60    2.56
  -1   0 -32   38.10    2.02
  -2   0 -32    0.94    1.17
  -2   0 -32    1.07    0.89
  -3   0 -32   94.02    3.70
  -3   0 -32   78.70    4.33
  -4   0 -32   -1.87    1.14
   5  -1 -32   12.27    2.28
   4  -1 -32    2.17    1.73
  -3  -1  32    6.64    0.81
   3  -1 -32   10.37    1.82
  -3   1  32    8.90    0.95
   2  -1 -32    3.78    1.43
  -2  -1  32    1.73    0.68
  -2   1  32    2.28    0.74
   2   1 -32    3.73    1.21
  -1  -1  32   15.41    1.32
   1  -1 -32   18.24    2.04
  -1   1  32   15.67    1.30
   1   1 -32   19.89    1.90
   0  -1 -32   14.88    1.87
   0  -1  32   13.45    1.32
   0   1  32   13.06    1.28
   0   1 -32   13.99    1.62
  -1  -1 -32    1.08    1.27
  -1  -1 -32    2.35    0.89
  -1   1 -32    2.80    1.06
  -1   1 -32    1.86    0.84
  -2  -1 -32   22.11    2.38
  -2  -1 -32   25.97    1.87
  -2   1 -32   23.66    2.07
  -2   1 -32   24.46    1.84
  -3  -1 -32    0.22    1.30
  -3  -1 -32    1.81    0.95
  -3   1 -32    1.57    0.97
  -3   1 -32    1.48    1.25
  -4  -1 -32   14.64    2.37
  -4   1 -32   13.08    1.93
  -4   1 -32   21.88    2.12
   5  -2 -32    4.07    2.07
   4  -2 -32    3.43    1.83
  -4   2  32    2.91    0.64
  -3  -2  32    7.89    0.72
   3  -2 -32    8.17    1.81
  -3   2  32    7.35    0.92
   2  -2 -32   56.85    3.29
  -2  -2  32   53.04    2.19
  -2   2  32   53.05    2.21
  -1  -2  32   11.64    1.10
   1  -2 -32   11.61    1.75
  -1   2  32   11.76    1.10
   0  -2 -32    4.08    1.59
   0  -2 -32    6.95    1.09
   0  -2  32    5.42    0.98
  -1  -2 -32  185.35    5.89
   1  -2  32  183.30    5.86
  -1  -2 -32  179.09    7.56
  -2  -2 -32    1.85    0.95
  -2  -2 -32   -0.19    1.26
  -2   2 -32    1.87    1.01
  -2   2 -32    1.57    0.95
  -3  -2 -32    3.00    0.98
  -3  -2 -32    2.97    1.65
  -3   2 -32    0.84    1.09
  -3   2 -32    2.86    1.06
  -4  -2 -32   13.23    2.52
  -4   2 -32   12.50    1.72
  -4   2 -32   19.72    2.12
   5  -3 -32    2.55    2.03
   4  -3 -32   -0.57    1.76
  -4   3  32    0.03    0.59
   3  -3 -32   36.05    3.17
  -3   3  32   32.20    1.70
  -2  -3  32    7.14    0.88
   2  -3 -32    8.09    1.70
  -2   3  32    8.94    1.01
   1  -3 -32    2.06    1.45
  -1  -3  32    0.15    0.71
  -1   3  32    0.55    0.67
   0  -3  32    4.81    0.96
   0  -3 -32    5.88    1.73
   0  -3 -32    5.18    1.01
  -1  -3 -32    2.01    0.90
   1  -3  32    1.90    0.91
  -1  -3 -32    0.33    1.41
  -2  -3 -32    5.49    1.78
  -2  -3 -32    8.16    1.23
  -2   3 -32    8.39    1.25
  -3  -3 -32    6.36    1.02
  -3  -3 -32    5.16    1.94
  -3   3 -32    4.18    1.11
  -4  -3 -32    7.09    2.21
  -4   3 -32    8.45    1.67
   5  -4 -32    4.11    2.15
   4  -4 -32   27.08    2.85
  -4   4  32   20.09    1.41
   3  -4 -32    0.05    1.65
  -3   4  32   -0.24    0.71
   2  -4 -32    0.96    1.52
  -2  -4  32    0.07    0.61
  -2   4  32    0.30    0.72
  -1  -4  32   36.95    1.83
   1  -4 -32   39.22    2.94
  -1   4  32   37.03    1.88
   0  -4 -32    0.63    1.51
   0  -4 -32    1.44    0.91
   0  -4  32    1.07    0.82
  -1  -4 -32    3.78    1.79
  -1  -4 -32    3.77    0.98
   1  -4  32    4.67    1.03
  -2  -4 -32   -0.92    1.48
  -2  -4 -32    1.37    0.91
  -2   4 -32    0.60    0.89
  -3  -4 -32   34.74    1.73
  -3  -4 -32   39.33    3.59
  -3   4 -32   34.11    2.13
  -4  -4 -32   -0.33    1.66
   5  -5 -32   14.94    2.61
   4  -5 -32    2.56    2.03
  -4   5  32    1.08    0.77
   3  -5 -32    5.69    1.91
  -3   5  32    4.52    0.91
   2  -5 -32    3.89    1.68
  -1  -5  32   24.92    1.58
   1  -5 -32   29.98    2.79
  -1   5  32   26.22    1.70
   0  -5 -32   11.96    2.21
   0  -5  32   11.73    1.24
   0  -5 -32   13.33    1.34
  -1  -5 -32    3.85    1.01
   1  -5  32    4.44    1.06
  -1  -5 -32    3.49    1.78
  -2  -5 -32    9.30    2.21
  -2  -5 -32    9.78    1.29
  -2   5 -32    6.98    1.12
  -3  -5 -32   10.01    2.35
  -3   5 -32    4.78    1.12
  -4  -5 -32   -0.82    1.63
   4  -6 -32    2.84    2.00
  -4   6  32   -0.28    0.78
   3  -6 -32    1.03    1.70
  -3   6  32    0.14    0.81
   2  -6 -32    8.85    1.90
  -2   6  32    7.46    1.07
   1  -6 -32    1.83    1.60
   1  -6 -32    1.43    0.98
  -1  -6  32    2.82    0.84
   0  -6 -32   13.69    1.41
   0  -6  32   10.04    1.22
   0  -6 -32   11.63    2.32
  -1  -6 -32    0.63    1.68
   1  -6  32    1.26    0.98
  -1  -6 -32    4.15    1.04
  -2  -6 -32    4.41    0.98
  -2  -6 -32    1.29    1.67
   2  -6  32    2.08    1.07
  -3  -6 -32    0.51    1.62
   4  -7 -32    2.55    1.99
   3  -7 -32   33.56    3.29
  -3   7  32   29.08    1.85
   2  -7 -32   15.17    2.19
  -2   7  32   14.41    1.33
   1  -7 -32    5.84    1.85
  -1  -7  32    6.28    0.95
   1  -7 -32    2.60    1.08
   0  -7 -32    0.57    0.94
   0  -7 -32    0.12    1.63
   0  -7  32    0.72    0.88
  -1  -7 -32    0.23    1.62
   1  -7  32    0.97    0.96
  -1  -7 -32    0.59    0.89
   2  -7  32    1.82    1.12
  -2  -7 -32    2.66    1.75
  -2  -7 -32    2.50    0.79
  -3  -7 -32    5.50    2.00
   3  -8 -32    5.04    1.85
  -3   8  32    2.54    0.97
   2  -8 -32    8.38    1.84
  -1  -8  32    6.92    0.92
   1  -8 -32    6.61    1.23
   1  -8 -32    7.41    1.85
   0  -8  32    0.94    0.92
   0  -8 -32    1.73    1.02
   0  -8 -32    1.32    1.57
   1  -8  32   16.51    1.56
  -1  -8 -32   14.62    1.46
  -1  -8 -32   17.12    2.55
  -2  -8 -32    4.49    1.87
   2  -8  32    3.69    1.33
   2  -9 -32   10.32    1.89
   1  -9 -32   11.88    1.42
   0  -9 -32    4.99    1.63
   0  -9  32    3.44    0.98
   0  -9 -32    4.78    1.11
  -1  -9 -32    0.38    1.44
   4   0 -33    3.57    1.72
  -3   0  33   -0.04    0.60
   3   0 -33    1.77    1.41
   2   0 -33    1.95    1.24
  -2   0  33   -0.11    0.65
   1   0 -33    4.38    1.26
  -1   0  33    1.75    0.75
   0   0  33   -0.03    0.73
   0   0 -33    1.34    1.07
  -1   0 -33    0.89    1.17
  -1   0 -33    0.59    0.85
  -2   0 -33   -1.58    1.10
  -2   0 -33   -0.12    0.85
  -3   0 -33    0.70    0.93
  -3   0 -33   -1.00    1.19
  -4   0 -33   -2.56    1.12
   5  -1 -33   20.25    2.55
   4  -1 -33    3.02    1.81
  -3  -1  33   34.86    1.66
   3  -1 -33   40.79    2.97
  -3   1  33   40.11    1.81
  -2  -1  33    6.42    0.90
   2  -1 -33    7.40    1.57
   2   1 -33    7.00    1.42
  -2   1  33    5.08    0.87
  -1  -1  33    9.76    1.08
   1  -1 -33   12.95    1.67
  -1   1  33   11.44    1.13
   1   1 -33   12.92    1.52
   0  -1 -33   27.29    2.35
   0  -1  33   24.52    1.65
   0   1  33   22.47    1.58
   0   1 -33   28.17    2.08
  -1  -1 -33    1.37    1.24
  -1  -1 -33    2.98    0.94
  -1   1 -33    3.82    0.94
  -1   1 -33    3.20    1.09
  -2  -1 -33   18.84    1.75
  -2  -1 -33   19.67    2.25
  -2   1 -33   23.47    1.84
  -2   1 -33   22.93    2.05
  -3  -1 -33    5.52    1.69
  -3  -1 -33    6.92    1.20
  -3   1 -33    6.53    1.25
  -3   1 -33    7.49    1.58
  -4  -1 -33    2.32    1.61
  -4   1 -33    9.24    1.54
  -4   1 -33    2.30    1.39
   5  -2 -33    3.55    2.01
   4  -2 -33    4.78    1.89
  -4   2  33    1.98    0.60
  -3  -2  33   10.58    0.86
   3  -2 -33   11.78    1.99
  -3   2  33   11.16    1.10
   2  -2 -33    2.05    1.45
  -2  -2  33   -0.74    0.65
  -2   2  33   -0.46    0.65
   1  -2 -33   11.63    1.75
  -1  -2  33   17.12    1.36
  -1   2  33   17.34    1.38
   0  -2 -33    5.15    1.05
   0  -2  33    4.22    0.95
   0  -2 -33    3.62    1.52
  -1  -2 -33   23.14    2.49
  -1  -2 -33   27.72    1.81
   1  -2  33   24.59    1.78
  -2  -2 -33    0.71    0.92
  -2  -2 -33   -0.32    1.32
  -2   2 -33    0.83    0.94
  -3  -2 -33   -0.26    1.46
  -3  -2 -33    1.79    0.93
  -3   2 -33    2.18    1.04
  -4  -2 -33   16.52    2.70
  -4   2 -33   23.09    2.25
   5  -3 -33   33.97    3.43
   4  -3 -33    7.76    2.10
  -4   3  33    3.79    0.77
   3  -3 -33   18.10    2.28
  -3   3  33   14.09    1.28
   2  -3 -33    2.43    1.49
  -2  -3  33    1.04    0.67
  -2   3  33    2.01    0.80
  -1  -3  33    1.57    0.78
   1  -3 -33    1.10    1.43
  -1   3  33    1.17    0.74
   0  -3  33    0.57    0.80
   0  -3 -33    0.90    0.90
   0  -3 -33    1.16    1.54
  -1  -3 -33    2.12    0.89
   1  -3  33    0.49    0.87
  -1  -3 -33   -0.10    1.44
  -2  -3 -33   11.73    2.20
  -2  -3 -33   11.23    1.40
  -2   3 -33   10.81    1.38
  -3  -3 -33   22.82    1.63
  -3  -3 -33   21.48    2.87
  -3   3 -33   20.49    1.81
  -4  -3 -33    6.90    2.28
   5  -4 -33    4.55    2.18
   4  -4 -33    9.63    2.21
  -4   4  33    7.16    0.97
   3  -4 -33    3.76    1.80
  -3   4  33    3.21    0.87
  -2  -4  33    5.39    0.82
   2  -4 -33    7.82    1.76
  -2   4  33    4.72    0.92
  -1  -4  33   47.04    2.12
   1  -4 -33   48.39    3.25
  -1   4  33   44.59    2.14
   0  -4 -33   -0.59    1.47
   0  -4 -33    1.38    0.92
   0  -4  33    0.86    0.84
  -1  -4 -33   39.09    2.20
  -1  -4 -33   37.61    3.32
   1  -4  33   38.33    2.17
  -2  -4 -33   15.44    1.55
  -2  -4 -33   20.84    2.78
  -2   4 -33   18.81    1.67
  -3  -4 -33    8.75    0.95
  -3  -4 -33    7.03    2.15
  -3   4 -33    6.26    1.18
  -4  -4 -33    3.33    2.14
   4  -5 -33    2.63    2.03
  -4   5  33   -0.22    0.71
   3  -5 -33    5.83    1.92
  -3   5  33    3.87    0.91
  -2  -5  33    4.98    0.74
   2  -5 -33    8.87    1.91
  -2   5  33    6.55    1.01
  -1  -5  33   15.72    1.39
   1  -5 -33   16.48    2.18
  -1   5  33   16.69    1.48
   0  -5  33    1.28    0.87
   0  -5 -33    0.83    1.62
   0  -5 -33    1.61    0.97
  -1  -5 -33   26.45    3.03
   1  -5  33   19.35    1.78
  -1  -5 -33   21.36    1.77
  -2  -5 -33    6.04    2.03
  -2  -5 -33    6.38    1.17
  -2   5 -33    5.22    1.06
  -3  -5 -33    2.75    1.91
  -3   5 -33    3.26    1.11
   4  -6 -33   10.94    2.32
  -4   6  33    8.86    1.20
   3  -6 -33   33.86    3.16
  -3   6  33   31.30    1.85
   2  -6 -33    2.34    1.59
  -2   6  33    3.02    0.91
   1  -6 -33   11.63    1.35
   1  -6 -33   15.19    2.15
  -1  -6  33   11.80    1.17
   0  -6 -33    2.21    1.76
   0  -6 -33    4.34    1.08
   0  -6  33    3.17    0.96
  -1  -6 -33   57.62    4.23
  -1  -6 -33   57.04    2.70
   1  -6  33   53.53    2.66
  -2  -6 -33   -0.09    0.81
   2  -6  33    0.55    1.05
  -2  -6 -33   -0.98    1.57
  -3  -6 -33   14.54    2.69
   3  -7 -33    1.85    1.77
  -3   7  33    0.39    0.85
   2  -7 -33    8.42    1.88
  -2   7  33    8.87    1.18
  -1  -7  33    6.27    0.97
   1  -7 -33    6.98    1.82
   1  -7 -33    4.94    1.17
   0  -7  33   15.65    1.46
   0  -7 -33   15.96    1.50
   0  -7 -33   18.03    2.49
  -1  -7 -33   10.31    1.32
   1  -7  33    8.35    1.29
  -1  -7 -33   11.63    2.32
  -2  -7 -33    1.78    0.78
   2  -7  33    2.57    1.17
  -2  -7 -33   -0.07    1.57
   3  -8 -33    1.70    1.70
   2  -8 -33   13.97    2.05
  -2   8  33   10.03    1.24
   1  -8 -33   96.73    4.64
  -1  -8  33   76.21    2.83
   1  -8 -33   77.37    3.32
   0  -8  33   14.64    1.40
   0  -8 -33   17.20    2.36
   0  -8 -33   16.30    1.51
  -1  -8 -33   10.18    2.26
  -1  -8 -33   10.14    1.24
   1  -8  33    9.20    1.35
  -2  -8 -33   12.38    2.37
   2  -9 -33   28.56    3.00
   1  -9 -33    5.39    1.67
   0  -9 -33    1.40    1.43
   4   0 -34   15.93    2.19
  -3   0  34   26.66    1.53
   3   0 -34   34.41    2.63
  -2   0  34   10.10    1.05
   2   0 -34   11.20    1.61
   1   0 -34    7.78    1.41
  -1   0  34    5.14    0.91
   0   0  34   10.55    1.17
   0   0 -34    9.56    1.49
  -1   0 -34   70.56    3.58
  -1   0 -34   61.67    2.73
  -2   0 -34   16.06    1.56
  -2   0 -34   16.05    1.98
  -3   0 -34   12.03    1.46
  -3   0 -34    7.49    1.72
  -4   0 -34   68.38    3.95
   5  -1 -34    4.88    1.98
   4  -1 -34    1.43    1.76
   3  -1 -34   26.96    2.57
  -3  -1  34   23.34    1.35
  -3   1  34   23.92    1.49
  -2  -1  34    3.83    0.83
   2  -1 -34    6.13    1.50
  -2   1  34    1.79    0.77
  -1  -1  34    4.61    0.90
   1  -1 -34    6.33    1.48
   1   1 -34    5.82    1.28
  -1   1  34    4.02    0.90
   0  -1 -34   41.30    2.77
   0  -1  34   37.51    2.02
   0   1  34   36.27    1.98
   0   1 -34   43.64    2.46
  -1  -1 -34    5.78    1.09
  -1  -1 -34    2.58    1.39
  -1   1 -34    4.14    0.99
  -1   1 -34    5.32    1.20
  -2  -1 -34    5.37    1.11
  -2  -1 -34    2.45    1.41
  -2   1 -34    5.84    1.35
  -2   1 -34    4.46    1.07
  -3  -1 -34    0.38    0.89
  -3  -1 -34   -1.22    1.34
  -3   1 -34   -1.01    1.17
  -3   1 -34    1.55    1.00
  -4  -1 -34   10.25    2.08
  -4   1 -34   11.15    1.81
   5  -2 -34    3.11    1.96
   4  -2 -34   12.44    2.20
   3  -2 -34   11.89    1.99
  -3   2  34   12.39    1.15
   2  -2 -34   19.82    2.08
  -2  -2  34   17.24    1.37
  -2   2  34   18.14    1.42
   1  -2 -34   80.77    3.93
  -1  -2  34   72.29    2.85
  -1   2  34   73.64    2.88
   0  -2  34    8.70    1.14
   0  -2 -34    8.94    1.18
   0  -2 -34   11.03    1.78
  -1  -2 -34   -0.91    1.29
  -1  -2 -34    2.14    0.92
   1  -2  34    1.82    0.92
  -2  -2 -34    9.29    1.96
  -2  -2 -34   10.52    1.35
  -2   2 -34    9.52    1.32
  -3  -2 -34   18.73    2.58
  -3  -2 -34   18.74    1.66
  -3   2 -34   17.92    1.71
  -4  -2 -34   15.25    2.59
   5  -3 -34   56.51    4.15
   4  -3 -34    4.29    1.98
  -4   3  34    1.92    0.71
   3  -3 -34    1.78    1.68
  -3   3  34   -0.06    0.73
   2  -3 -34    6.66    1.72
  -2  -3  34    5.80    0.88
  -2   3  34    5.96    0.98
  -1  -3  34    9.76    1.12
   1  -3 -34   10.78    1.82
  -1   3  34    9.30    1.11
   0  -3 -34    8.58    1.19
   0  -3  34    9.08    1.21
   0  -3 -34    8.78    1.82
  -1  -3 -34    1.02    0.91
  -1  -3 -34   -1.60    1.33
   1  -3  34    0.26    0.89
  -2  -3 -34   44.76    2.43
  -2  -3 -34   38.41    3.34
  -2   3 -34   43.33    2.35
  -3  -3 -34    2.27    1.78
  -3  -3 -34    5.03    0.97
  -3   3 -34    3.02    1.06
   4  -4 -34    9.89    2.22
  -4   4  34    8.33    1.01
   3  -4 -34    8.26    1.97
  -3   4  34    7.90    1.06
  -2  -4  34    0.80    0.66
   2  -4 -34    1.41    1.49
  -2   4  34    0.59    0.77
  -1  -4  34    3.64    0.89
   1  -4 -34    3.66    1.62
  -1   4  34    4.12    0.91
   0  -4 -34    6.01    1.14
   0  -4 -34    5.37    1.80
   0  -4  34    4.72    1.03
   1  -4  34   28.90    2.00
  -1  -4 -34   28.42    3.04
  -1  -4 -34   33.02    1.98
  -2  -4 -34    3.85    1.82
  -2  -4 -34    8.31    1.25
  -2   4 -34    6.48    1.14
  -3  -4 -34    7.88    0.91
  -3  -4 -34    6.64    2.16
  -3   4 -34    5.57    1.18
   4  -5 -34    0.81    1.92
  -4   5  34   -0.39    0.74
   3  -5 -34   65.19    3.90
  -3   5  34   55.80    2.48
   2  -5 -34    4.31    1.71
  -2  -5  34    2.30    0.64
  -2   5  34    1.94    0.87
  -1  -5  34    1.02    0.80
   1  -5 -34    2.42    1.64
  -1   5  34    1.42    0.85
   0  -5 -34   44.45    3.59
   0  -5  34   52.28    2.43
   0  -5 -34   54.22    2.53
  -1  -5 -34    0.67    0.92
   1  -5  34    0.07    0.95
  -1  -5 -34   -0.95    1.55
  -2  -5 -34   13.13    1.42
  -2  -5 -34   10.87    2.38
  -2   5 -34   10.64    1.31
  -3  -5 -34   -0.30    1.65
  -3   5 -34   -1.55    0.93
   4  -6 -34    6.63    2.12
   3  -6 -34    2.52    1.78
  -3   6  34    1.12    0.85
   2  -6 -34   16.94    2.20
  -2   6  34   13.98    1.35
   1  -6 -34    7.33    1.90
   1  -6 -34    6.92    1.21
  -1  -6  34    8.54    1.06
   0  -6 -34   -0.39    0.93
   0  -6 -34    0.46    1.60
   0  -6  34    0.67    0.89
   1  -6  34    1.25    1.05
  -1  -6 -34    1.16    1.67
  -1  -6 -34    2.39    0.95
   2  -6  34    0.09    1.06
  -2  -6 -34   -2.87    1.41
  -2  -6 -34    1.66    0.87
  -3  -6 -34   -0.03    1.95
   3  -7 -34   14.13    2.23
   2  -7 -34   17.23    2.25
  -2   7  34   16.32    1.46
  -1  -7  34   17.23    1.44
   1  -7 -34   21.53    2.46
   1  -7 -34   16.47    1.54
   0  -7 -34   14.70    2.35
   0  -7 -34   18.09    1.75
   0  -7  34   14.75    1.44
  -1  -7 -34    8.34    1.19
  -1  -7 -34    6.26    2.03
   1  -7  34    6.83    1.25
  -2  -7 -34   37.68    3.60
   2  -8 -34    5.07    1.70
   1  -8 -34    2.32    1.05
   1  -8 -34    4.91    1.79
   0  -8  34    2.43    0.98
   0  -8 -34    2.12    1.59
   0  -8 -34    1.94    1.04
  -1  -8 -34   -0.05    1.52
   3   0 -35    4.15    1.50
  -2   0  35    0.57    0.74
   2   0 -35    3.51    1.27
   1   0 -35    5.65    1.37
  -1   0  35    4.17    0.92
   0   0  35   -0.02    0.80
   0   0 -35    1.23    1.11
  -1   0 -35    2.31    1.20
  -1   0 -35    1.03    0.89
  -2   0 -35   -0.46    1.19
  -2   0 -35    1.28    0.94
  -3   0 -35   -1.38    1.27
  -3   0 -35    0.29    0.91
   5  -1 -35   40.19    3.47
   4  -1 -35    4.31    1.86
  -3  -1  35   15.27    1.16
   3  -1 -35   23.90    2.72
  -3   1  35   15.23    1.32
  -2  -1  35   42.63    2.01
   2  -1 -35   45.71    2.91
  -2   1  35   44.52    2.06
   1  -1 -35    4.30    1.41
  -1  -1  35    2.90    0.86
  -1   1  35    1.84    0.83
   0  -1  35   51.90    2.43
   0  -1 -35   53.81    3.24
   0   1 -35   61.64    3.00
   0   1  35   46.93    2.37
  -1  -1 -35    0.75    1.31
  -1  -1 -35    2.80    1.00
  -1   1 -35    1.88    1.02
  -1   1 -35    0.96    0.88
  -2  -1 -35   24.79    2.58
  -2  -1 -35   29.90    2.03
  -2   1 -35   27.98    2.36
  -2   1 -35   30.70    2.02
  -3  -1 -35    3.72    1.07
  -3  -1 -35    1.17    1.50
  -3   1 -35    2.49    1.39
  -3   1 -35    2.91    1.09
   5  -2 -35    3.37    1.93
   4  -2 -35    8.03    2.04
   3  -2 -35    2.88    1.64
  -3   2  35    0.47    0.74
  -2  -2  35    0.75    0.75
   2  -2 -35    2.88    1.44
  -2   2  35    0.63    0.77
   1  -2 -35   12.35    1.85
  -1  -2  35   10.23    1.14
  -1   2  35   13.14    1.25
   0  -2 -35    0.48    0.91
   0  -2  35    0.48    0.82
   0  -2 -35    1.65    1.40
  -1  -2 -35    6.94    1.76
   1  -2  35    7.62    1.18
  -1  -2 -35    9.11    1.25
  -2  -2 -35    5.12    1.12
  -2  -2 -35    4.33    1.70
  -2   2 -35    5.25    1.16
  -3  -2 -35    0.31    1.51
  -3  -2 -35    1.18    0.88
  -3   2 -35    1.24    0.97
   4  -3 -35    9.74    2.14
  -4   3  35    9.32    0.97
   3  -3 -35    6.78    1.88
  -3   3  35    5.48    0.97
   2  -3 -35    0.71    1.46
  -2  -3  35    1.24    0.72
  -2   3  35    1.71    0.82
   1  -3 -35    2.80    1.52
  -1  -3  35    0.87    0.81
  -1   3  35    2.44    0.90
   0  -3  35   50.21    2.45
   0  -3 -35   51.14    2.47
   0  -3 -35   53.74    3.44
   1  -3  35    8.38    1.27
  -1  -3 -35    7.53    1.90
  -1  -3 -35    9.37    1.22
  -2  -3 -35   13.80    1.50
  -2  -3 -35   16.93    2.47
  -2   3 -35   19.01    1.74
  -3  -3 -35   12.06    2.45
  -3  -3 -35   14.54    1.38
  -3   3 -35   10.46    1.38
   4  -4 -35    7.19    2.09
  -4   4  35    3.19    0.82
   3  -4 -35   20.69    2.42
  -3   4  35   19.37    1.54
  -2  -4  35    9.65    1.00
   2  -4 -35   11.11    1.88
  -2   4  35    9.58    1.14
   1  -4 -35    3.95    1.58
  -1  -4  35    3.16    0.88
  -1   4  35    3.45    0.92
   0  -4  35   16.34    1.60
   0  -4 -35   19.20    2.37
   0  -4 -35   20.69    1.77
  -1  -4 -35    0.57    0.88
   1  -4  35   -0.37    0.91
  -1  -4 -35   -1.28    1.37
  -2  -4 -35    2.20    1.00
  -2  -4 -35    0.03    1.57
  -2   4 -35    2.81    0.99
  -3  -4 -35    0.17    0.63
  -3  -4 -35   -2.23    1.58
  -3   4 -35   -1.22    0.96
   4  -5 -35   10.74    2.29
   3  -5 -35    4.95    1.86
  -3   5  35    2.53    0.92
   2  -5 -35   27.75    2.74
  -2  -5  35   19.36    1.24
  -2   5  35   20.93    1.61
  -1  -5  35    5.27    0.99
   1  -5 -35    7.37    1.82
  -1   5  35    6.31    1.08
   0  -5  35    0.46    0.88
   0  -5 -35    2.54    1.68
   0  -5 -35    2.82    1.09
  -1  -5 -35    6.04    1.15
   1  -5  35    5.96    1.20
  -1  -5 -35    6.92    2.09
  -2  -5 -35    2.65    0.98
  -2  -5 -35    1.07    1.71
  -2   5 -35    1.53    1.03
  -3  -5 -35    5.89    2.19
   3  -6 -35    3.30    1.80
  -3   6  35    2.77    0.93
   2  -6 -35    2.83    1.63
  -2   6  35    1.21    0.90
   1  -6 -35    4.55    1.13
  -1  -6  35    3.97    0.94
   1  -6 -35    6.39    1.88
   0  -6 -35    3.32    1.73
   0  -6  35    1.60    0.96
   0  -6 -35    2.24    1.08
   1  -6  35    0.73    1.02
  -1  -6 -35    1.44    1.67
  -1  -6 -35    1.56    0.93
  -2  -6 -35   58.93    2.64
   2  -6  35   55.02    2.89
  -2  -6 -35   57.58    4.35
   3  -7 -35    6.10    2.07
   2  -7 -35   24.36    2.71
  -2   7  35   19.68    1.73
   1  -7 -35   -0.18    0.97
   1  -7 -35    3.65    1.72
  -1  -7  35    0.69    0.78
   0  -7 -35    2.91    1.09
   0  -7 -35    2.92    1.65
   0  -7  35    1.67    0.98
   1  -7  35   16.51    1.62
  -1  -7 -35   15.31    2.53
  -1  -7 -35   17.01    1.63
   1  -8 -35    4.53    1.72
   0  -8 -35   10.14    1.96
   3   0 -36    7.99    1.67
  -3   0  36    4.39    0.85
  -2   0  36   42.70    2.09
   2   0 -36   49.96    2.97
   1   0 -36    4.69    1.35
  -1   0  36    0.34    0.80
   0   0 -36   25.03    2.15
   0   0  36   17.46    1.60
  -1   0 -36   54.23    3.16
  -1   0 -36   55.03    2.52
  -2   0 -36   13.08    1.46
  -2   0 -36   12.29    1.80
  -3   0 -36    4.60    1.61
  -3   0 -36    4.47    1.15
   4  -1 -36    4.97    1.84
   3  -1 -36   13.85    1.98
  -3  -1  36    9.87    0.93
  -3   1  36    9.68    1.08
   2  -1 -36   24.22    2.46
  -2  -1  36   18.20    1.44
  -2   1  36   15.39    1.42
  -1  -1  36   25.16    1.71
   1  -1 -36   33.25    2.68
  -1   1  36   25.52    1.73
   0  -1  36   -0.13    0.85
   0  -1 -36    2.81    1.32
   0   1  36   -0.04    0.83
  -1  -1 -36    1.24    1.32
  -1  -1 -36    0.98    0.93
  -1   1 -36    2.77    1.12
  -1   1 -36    1.96    0.93
  -2  -1 -36    4.95    1.62
  -2  -1 -36    5.49    1.18
  -2   1 -36    8.72    1.28
  -2   1 -36    7.11    1.43
  -3  -1 -36    1.69    0.94
  -3  -1 -36   -2.43    1.31
  -3   1 -36   -0.65    1.26
  -3   1 -36    0.13    0.92
   4  -2 -36   58.79    3.98
   3  -2 -36    8.44    1.83
  -3   2  36    3.41    0.90
  -2  -2  36    0.41    0.74
   2  -2 -36    1.62    1.43
  -2   2  36    0.39    0.77
   1  -2 -36   15.30    1.99
  -1  -2  36   12.87    1.30
  -1   2  36   13.63    1.31
   0  -2 -36    1.96    1.42
   0  -2  36    0.31    0.86
  -1  -2 -36    3.36    1.02
  -1  -2 -36    1.58    1.52
   1  -2  36    2.09    0.99
  -2  -2 -36   13.04    1.46
  -2  -2 -36    8.36    1.86
  -2   2 -36   12.66    1.46
  -3  -2 -36   33.84    2.01
  -3  -2 -36   29.52    3.04
  -3   2 -36   30.87    2.12
   4  -3 -36   14.48    2.29
  -4   3  36    6.51    0.85
   3  -3 -36   15.63    2.21
  -3   3  36   13.67    1.27
   2  -3 -36    6.12    1.66
  -2  -3  36    5.98    0.91
  -2   3  36    5.23    0.99
  -1  -3  36    0.50    0.81
   1  -3 -36    1.27    1.43
  -1   3  36    0.86    0.84
   0  -3 -36   65.36    3.81
   0  -3  36   60.71    2.76
   0  -3 -36   63.58    2.79
  -1  -3 -36    3.42    1.01
  -1  -3 -36    1.64    1.57
   1  -3  36    1.38    0.97
  -2  -3 -36    4.28    1.10
  -2  -3 -36    3.22    1.72
  -2   3 -36    5.36    1.15
  -3  -3 -36   23.40    2.92
   4  -4 -36    3.43    1.96
   3  -4 -36    2.45    1.71
  -3   4  36    0.57    0.82
  -2  -4  36   12.47    1.21
   2  -4 -36   17.09    2.11
  -2   4  36   15.80    1.51
   1  -4 -36    6.72    1.71
  -1  -4  36    2.52    0.88
  -1   4  36    2.46    0.95
   0  -4 -36    6.41    1.17
   0  -4 -36    7.43    1.88
   0  -4  36    6.62    1.14
   1  -4  36   25.42    1.97
  -1  -4 -36   22.04    2.66
  -1  -4 -36   25.25    1.85
  -2  -4 -36    9.79    1.33
  -2  -4 -36    6.08    1.98
  -2   4 -36    9.80    1.28
  -3  -4 -36   -0.05    1.68
   3  -5 -36    4.36    1.83
  -3   5  36   -0.95    0.80
   2  -5 -36   54.71    3.50
  -2   5  36   48.95    2.36
  -1  -5  36    4.99    0.98
   1  -5 -36    8.32    1.86
  -1   5  36    4.56    1.00
   0  -5  36    5.65    1.13
   0  -5 -36    5.49    1.17
   0  -5 -36    8.75    1.95
  -1  -5 -36   -0.19    1.62
  -1  -5 -36    3.61    1.02
   1  -5  36    1.45    1.05
  -2  -5 -36   35.75    3.46
  -2  -5 -36   37.81    2.18
  -2   5 -36   34.34    2.30
   3  -6 -36    5.66    1.87
   2  -6 -36    6.34    1.77
  -2   6  36    3.09    0.98
  -1  -6  36    0.45    0.82
   1  -6 -36   -0.35    1.00
   1  -6 -36    4.37    1.75
   0  -6 -36    1.68    1.67
   0  -6  36    1.88    0.99
   0  -6 -36    1.99    1.05
   1  -6  36    0.97    1.04
  -1  -6 -36    3.01    0.97
  -1  -6 -36   -1.52    1.55
  -2  -6 -36    1.30    1.75
   2  -7 -36   44.04    3.27
  -1  -7  36    2.58    0.83
   1  -7 -36    1.06    1.04
   1  -7 -36    5.23    1.80
   0  -7 -36   47.05    3.62
   0  -7 -36   48.14    2.76
  -1  -7 -36    9.52    2.20
  -3   0  37   -0.67    0.66
   2   0 -37    3.08    1.29
  -2   0  37   -0.51    0.74
  -1   0  37    3.80    0.95
   1   0 -37    5.73    1.37
   0   0 -37    2.08    1.22
   0   0  37   -0.31    0.84
  -1   0 -37    3.14    1.00
  -1   0 -37    5.35    1.35
  -2   0 -37    0.19    1.25
  -2   0 -37    1.15    0.96
  -3   0 -37   -1.78    1.26
   4  -1 -37   34.73    3.19
   3  -1 -37    4.53    1.59
  -3  -1  37    0.18    0.60
  -3   1  37    1.40    0.79
   2  -1 -37   40.43    2.79
  -2  -1  37   35.97    1.91
  -2   1  37   35.91    1.94
   1  -1 -37    8.56    1.68
  -1  -1  37    3.66    0.94
  -1   1  37    5.13    1.04
   0  -1  37   27.05    1.92
   0  -1 -37   35.66    2.69
   0   1  37   28.38    1.91
  -1  -1 -37    9.59    1.70
  -1  -1 -37   11.95    1.36
  -1   1 -37   10.83    1.30
  -2  -1 -37    1.98    1.01
  -2  -1 -37    1.36    1.39
  -2   1 -37    0.86    1.19
  -2   1 -37    1.94    1.01
  -3  -1 -37   44.30    3.28
  -3   1 -37   43.44    2.91
   4  -2 -37    9.92    2.03
   3  -2 -37    4.79    1.69
  -3   2  37   -0.02    0.79
  -2  -2  37    1.07    0.77
   2  -2 -37    3.37    1.47
  -2   2  37    1.49    0.87
   1  -2 -37    9.57    1.75
  -1  -2  37    6.08    1.07
  -1   2  37    6.82    1.08
   0  -2 -37    1.09    1.36
   0  -2  37    0.53    0.89
  -1  -2 -37    5.32    1.67
   1  -2  37    5.92    1.15
  -1  -2 -37    7.28    1.20
  -2  -2 -37    1.06    0.95
  -2  -2 -37   -2.64    1.27
  -2   2 -37    1.12    1.00
  -3  -2 -37   -1.76    1.40
   4  -3 -37    9.52    2.10
   3  -3 -37    2.40    1.64
  -3   3  37   -0.53    0.78
  -2  -3  37   27.96    1.67
   2  -3 -37   37.20    2.99
  -2   3  37   31.40    1.86
  -1  -3  37    4.52    0.99
   1  -3 -37    8.24    1.79
  -1   3  37    4.21    1.00
   0  -3 -37    2.07    0.98
   0  -3  37    1.93    1.00
   0  -3 -37    4.03    1.60
   1  -3  37   23.31    1.95
  -1  -3 -37   23.73    1.84
  -1  -3 -37   23.26    2.73
  -2  -3 -37    2.29    1.00
  -2  -3 -37   -1.04    1.41
  -2   3 -37    1.97    1.03
   3  -4 -37   15.31    2.20
  -3   4  37   12.90    1.30
  -2  -4  37    3.36    0.78
   2  -4 -37    5.48    1.68
  -2   4  37    4.36    1.01
   1  -4 -37   13.35    2.07
  -1  -4  37    9.07    1.15
  -1   4  37   10.50    1.26
   0  -4  37    0.06    0.87
   0  -4 -37    1.54    1.00
   0  -4 -37    0.40    1.47
   1  -4  37    5.54    1.20
  -1  -4 -37    3.88    1.77
  -1  -4 -37    5.61    1.11
  -2  -4 -37    5.68    1.92
  -2  -4 -37    8.97    1.28
  -2   4 -37    9.00    1.23
   3  -5 -37    5.76    1.86
   2  -5 -37    2.60    1.60
  -2   5  37    0.23    0.87
   1  -5 -37    7.13    1.87
  -1  -5  37    3.23    0.94
  -1   5  37    2.85    0.98
   0  -5  37   12.36    1.40
   0  -5 -37   13.38    1.47
   0  -5 -37   13.89    2.22
   1  -5  37    3.48    1.15
  -1  -5 -37    4.83    1.07
  -1  -5 -37    0.66    1.71
  -2  -5 -37   -1.77    1.51
   2  -6 -37   30.14    2.88
   1  -6 -37   28.18    2.06
   1  -6 -37   36.10    3.12
  -1  -6  37   25.49    1.71
   0  -6  37   18.76    1.73
   0  -6 -37   22.67    2.60
   0  -6 -37   23.52    1.92
  -1  -6 -37    9.26    2.13
   1  -7 -37   25.50    3.00
   0  -7 -37    8.33    2.14
  -3   0  38   10.95    1.08
  -2   0  38    6.75    1.07
   2   0 -38   13.74    1.81
  -1   0  38   70.41    2.99
   1   0 -38   81.31    3.77
   0   0 -38    6.61    1.41
   0   0  38    4.56    1.08
  -1   0 -38    1.24    1.17
  -1   0 -38    0.72    0.96
  -2   0 -38    2.00    1.34
  -2   0 -38    2.34    1.01
   3  -1 -38    7.29    1.72
  -3   1  38    2.65    0.84
   2  -1 -38    4.86    1.48
  -2  -1  38    0.82    0.81
  -2   1  38    0.76    0.83
  -1  -1  38    1.29    0.87
   1  -1 -38    3.76    1.48
  -1   1  38    0.43    0.87
   0  -1  38   21.21    1.79
   0  -1 -38   27.92    2.47
   0   1  38   21.83    1.78
  -1  -1 -38    4.34    1.08
  -1  -1 -38    4.12    1.41
  -1   1 -38    2.85    1.03
  -2  -1 -38   10.47    1.40
  -2  -1 -38    8.80    1.79
  -2   1 -38   10.11    1.36
   4  -2 -38    4.66    1.83
   3  -2 -38   25.40    2.71
  -3   2  38   22.09    1.59
   2  -2 -38   27.15    2.71
  -2  -2  38   18.64    1.49
  -2   2  38   19.53    1.61
  -1  -2  38   11.84    1.30
   1  -2 -38   17.34    2.12
  -1   2  38   11.59    1.30
   0  -2 -38    9.11    1.70
   0  -2  38    7.38    1.18
   1  -2  38   48.00    2.57
  -1  -2 -38   52.25    3.34
  -1  -2 -38   50.65    2.50
  -2  -2 -38    2.41    1.04
  -2  -2 -38   -1.92    1.36
  -2   2 -38    1.98    1.05
   3  -3 -38   26.30    2.96
  -3   3  38   20.87    1.61
   2  -3 -38   24.80    2.61
  -2  -3  38   18.46    1.43
  -2   3  38   19.86    1.63
  -1  -3  38    9.77    1.21
   1  -3 -38   15.20    2.07
  -1   3  38   12.13    1.34
   0  -3  38    5.12    1.16
   0  -3 -38    4.01    1.08
   0  -3 -38    7.62    1.76
  -1  -3 -38    7.77    1.90
   1  -3  38    7.27    1.29
  -1  -3 -38    8.31    1.26
  -2  -3 -38   12.41    2.26
  -2   3 -38   14.74    1.63
   3  -4 -38    5.20    1.80
   2  -4 -38   11.42    1.92
  -2  -4  38    6.92    0.90
  -2   4  38    7.91    1.17
  -1  -4  38   23.74    1.73
   1  -4 -38   34.23    2.97
  -1   4  38   23.87    1.80
   0  -4 -38    0.53    0.96
   0  -4  38    0.33    0.91
   0  -4 -38    1.56    1.56
  -1  -4 -38    3.07    1.01
  -1  -4 -38   -1.17    1.53
   1  -4  38    1.70    1.03
  -2  -4 -38   -0.36    1.53
   2  -5 -38    7.89    1.84
  -2   5  38    2.89    1.07
  -1  -5  38    1.46    0.88
   1  -5 -38    3.72    1.74
  -1   5  38    1.36    0.96
   0  -5 -38    9.87    1.34
   0  -5 -38   10.23    1.99
   0  -5  38    9.77    1.32
  -1  -5 -38   25.44    2.89
   0  -6 -38    4.38    1.74
  -3   0  39   -0.44    0.66
  -2   0  39    0.33    0.81
   1   0 -39    4.18    1.25
  -1   0  39    0.43    0.85
   0   0  39   -0.47    0.87
   0   0 -39    2.46    1.21
  -1   0 -39    0.02    0.92
  -1   0 -39    1.08    1.20
  -2   0 -39   -0.33    1.24
   3  -1 -39   12.26    1.81
  -3   1  39    4.81    0.93
  -2  -1  39   -0.30    0.81
   2  -1 -39    5.17    1.48
  -2   1  39    1.27    0.87
  -1  -1  39    4.89    1.06
   1  -1 -39    9.15    1.66
  -1   1  39    3.45    0.99
   0  -1 -39    4.26    1.38
   0  -1  39    1.63    0.97
   0   1  39    2.87    1.04
  -1  -1 -39   25.16    2.37
  -1  -1 -39   22.82    1.81
  -1   1 -39   23.97    1.88
  -2  -1 -39    0.48    1.32
   3  -2 -39   11.36    1.90
  -2  -2  39    1.01    0.80
   2  -2 -39    3.48    1.47
  -2   2  39    0.15    0.83
  -1  -2  39    9.97    1.22
  -1   2  39   11.13    1.30
   0  -2  39    5.17    1.14
   0  -2 -39    7.39    1.67
  -1  -2 -39    7.93    1.71
   1  -2  39    6.65    1.27
  -1  -2 -39    9.98    1.27
  -2  -2 -39    1.30    1.55
   3  -3 -39    7.20    1.75
   2  -3 -39    5.16    1.63
  -2  -3  39    1.55    0.81
  -2   3  39    0.88    0.91
   1  -3 -39    9.08    1.83
  -1  -3  39    6.04    1.07
  -1   3  39    3.94    1.04
   0  -3  39    0.58    0.96
   0  -3 -39    1.03    1.00
   0  -3 -39    1.76    1.50
   1  -3  39    2.17    1.12
  -1  -3 -39    2.16    1.52
  -1  -3 -39    2.30    1.04
   2  -4 -39   13.08    2.01
  -1  -4  39   37.12    2.03
  -1   4  39   38.47    2.15
   0  -4  39   -0.28    0.95
   0  -4 -39    1.21    1.03
   0  -4 -39    1.71    1.56
  -1  -4 -39   11.05    2.09
   2  -5 -39   14.21    2.33
   1  -5 -39    5.84    1.78
   0  -5 -39    3.19    1.68
  -2   0  40    3.84    0.98
  -1   0  40    3.57    1.03
   0   0  40    2.34    1.01
   0   0 -40    6.57    1.41
  -1   0 -40   34.13    2.12
  -1   0 -40   37.31    2.69
   3  -1 -40   21.16    2.46
  -1  -1  40    7.94    1.18
   1  -1 -40   10.82    1.66
  -1   1  40    6.06    1.12
   0  -1  40   13.73    1.45
   0  -1 -40   23.00    2.37
   0   1  40   16.16    1.54
  -1  -1 -40    1.44    0.99
  -1  -1 -40    1.98    1.33
  -1   1 -40    1.61    1.02
  -2  -2  40    4.84    0.99
   2  -2 -40   13.07    1.83
  -2   2  40    5.70    1.13
   1  -2 -40   60.14    3.48
  -1  -2  40   45.17    2.37
  -1   2  40   45.46    2.39
   0  -2  40   22.73    1.91
   0  -2 -40   29.55    2.55
   1  -2  40    1.47    1.12
  -1  -2 -40    2.88    1.41
   2  -3 -40   23.99    2.74
  -1  -3  40    0.57    0.91
   1  -3 -40    4.35    1.60
  -1   3  40    0.64    0.94
   0  -3 -40    0.30    1.00
   0  -3 -40    3.19    1.57
   0  -3  40   -0.82    0.99
  -1  -3 -40    2.25    1.50
   1  -4 -40    4.87    1.68
   0  -4 -40    3.00    1.63
  -1   0  41    2.80    1.10
   0   0  41    0.46    0.98
   2  -1 -41   40.92    3.06
   1  -1 -41    7.75    1.54
   0   1  41   13.62    1.56
  -1  -1 -41    1.97    1.31
   2  -2 -41    9.57    1.79
   1  -2 -41    7.12    1.58
   0  -2 -41    5.62    1.53
   1  -3 -41    6.37    1.62
   0  -3 -41   24.37    2.58
   1  -1 -42    7.14    1.49
   0   0   0    0.00    0.00
;
_shelx_hkl_checksum              49578
#END Tags that were not found in dictionaries
loop_
_space_group_symop_operation_xyz
'x, y, z'
'-x, y+1/2, -z+1/2'
'-x, -y, -z'
'x, -y-1/2, z-1/2'
loop_
_atom_site_label
_atom_site_type_symbol
_atom_site_fract_x
_atom_site_fract_y
_atom_site_fract_z
_atom_site_U_iso_or_equiv
_atom_site_adp_type
_atom_site_occupancy
_atom_site_site_symmetry_order
_atom_site_calc_flag
Se1 Se 0.07829(14) 0.96721(8) 0.35667(3) 0.00614(15) Uani 1 1 d
Se2 Se 0.48327(14) 1.45600(8) 0.31277(3) 0.00532(15) Uani 1 1 d
Se3 Se -0.20848(14) 0.72282(8) 0.50471(3) 0.00516(15) Uani 1 1 d
O11 O 0.2341(12) 1.1400(6) 0.3400(2) 0.0142(10) Uani 1 1 d
O12 O -0.0277(12) 0.9487(7) 0.4239(2) 0.0142(15) Uani 1 1 d
O13 O 0.3237(10) 0.8039(6) 0.3473(2) 0.0077(8) Uani 1 1 d
O14 O -0.2228(11) 0.9350(6) 0.3038(2) 0.0076(8) Uani 1 1 d
O21 O 0.6417(11) 1.3366(6) 0.25965(19) 0.0076(8) Uani 1 1 d
O22 O 0.7226(10) 1.3797(6) 0.37099(19) 0.0062(8) Uani 1 1 d
O23 O 0.6860(11) 1.6383(6) 0.3007(2) 0.0086(8) Uani 1 1 d
O31 O 0.1748(10) 0.7004(6) 0.5253(2) 0.0066(8) Uani 1 1 d
O32 O -0.2350(11) 0.6011(6) 0.4413(2) 0.0074(8) Uani 1 1 d
O33 O -0.3385(11) 0.5869(6) 0.5572(2) 0.0083(9) Uani 1 1 d
B1 B 0.5383(16) 0.8028(9) 0.2991(3) 0.0053(11) Uani 1 1 d
B2 B -0.3315(16) 0.4240(9) 0.4331(3) 0.0067(12) Uani 1 1 d
loop_
_atom_site_aniso_label
_atom_site_aniso_U_11
_atom_site_aniso_U_22
_atom_site_aniso_U_33
_atom_site_aniso_U_23
_atom_site_aniso_U_13
_atom_site_aniso_U_12
Se1 0.0070(3) 0.0054(3) 0.0060(3) -0.0013(2) 0.0004(2) -0.0002(2)
Se2 0.0065(3) 0.0051(3) 0.0042(3) -0.0005(2) 0.00001(19) 0.0005(2)
Se3 0.0058(3) 0.0047(3) 0.0048(3) -0.0001(2) -0.00020(19) 0.0002(2)
O11 0.014(2) 0.004(2) 0.026(3) 0.0042(19) 0.003(2) -0.0043(18)
O12 0.020(3) 0.017(3) 0.007(2) -0.0021(18) 0.0067(18) -0.001(2)
O13 0.008(2) 0.009(2) 0.0065(19) 0.0011(16) 0.0019(15) 0.0019(17)
O14 0.009(2) 0.007(2) 0.0068(19) 0.0020(16) -0.0025(15) 0.0000(16)
O21 0.010(2) 0.008(2) 0.0047(19) -0.0032(16) 0.0005(16) 0.0031(17)
O22 0.009(2) 0.007(2) 0.0020(17) 0.0007(15) -0.0003(15) 0.0015(16)
O23 0.008(2) 0.008(2) 0.010(2) 0.0011(17) 0.0024(16) 0.0004(17)
O31 0.0061(19) 0.006(2) 0.0075(19) 0.0031(16) -0.0027(15) -0.0015(16)
O32 0.011(2) 0.006(2) 0.0050(18) -0.0024(16) 0.0007(15) -0.0019(17)
O33 0.007(2) 0.009(2) 0.008(2) 0.0010(16) 0.0006(16) -0.0016(17)
B1 0.007(3) 0.005(3) 0.004(3) 0.002(2) 0.000(2) -0.001(2)
B2 0.007(3) 0.007(3) 0.006(3) -0.002(2) -0.001(2) 0.001(2)
loop_
_atom_type_symbol
_atom_type_description
_atom_type_scat_dispersion_real
_atom_type_scat_dispersion_imag
_atom_type_scat_source
O O 0.0106 0.0060 'International Tables Vol C Tables 4.2.6.8 and 6.1.1.4'
B B 0.0013 0.0007 'International Tables Vol C Tables 4.2.6.8 and 6.1.1.4'
Se Se -0.0929 2.2259 'International Tables Vol C Tables 4.2.6.8 and 6.1.1.4'
loop_
_geom_angle_atom_site_label_1
_geom_angle_atom_site_label_2
_geom_angle_atom_site_label_3
_geom_angle
_geom_angle_site_symmetry_1
_geom_angle_site_symmetry_3
O11 Se1 O12 117.3(3) . .
O11 Se1 O14 106.7(3) . .
O12 Se1 O14 111.2(3) . .
O11 Se1 O13 110.1(2) . .
O12 Se1 O13 106.1(2) . .
O14 Se1 O13 104.8(2) . .
O22 Se2 O21 94.0(2) . .
O22 Se2 O23 97.3(2) . .
O21 Se2 O23 96.7(2) . .
O31 Se3 O32 99.1(2) . .
O31 Se3 O33 97.2(2) . .
O32 Se3 O33 101.6(2) . .
B1 O13 Se1 122.3(4) . .
B1 O14 Se1 130.7(4) 1_455 .
B1 O21 Se2 119.5(4) 2_655 .
B2 O22 Se2 119.5(4) 1_665 .
B1 O23 Se2 121.7(4) 1_565 .
B2 O31 Se3 128.9(4) 3_566 .
B2 O32 Se3 129.9(4) . .
B2 O33 Se3 121.2(4) 3_466 .
O23 B1 O14 109.2(5) 1_545 1_655
O23 B1 O13 107.0(5) 1_545 .
O14 B1 O13 115.5(5) 1_655 .
O23 B1 O21 112.5(5) 1_545 2_645
O14 B1 O21 104.5(5) 1_655 2_645
O13 B1 O21 108.3(5) . 2_645
O22 B2 O33 111.2(5) 1_445 3_466
O22 B2 O32 106.2(5) 1_445 .
O33 B2 O32 108.0(5) 3_466 .
O22 B2 O31 108.9(5) 1_445 3_566
O33 B2 O31 105.9(5) 3_466 3_566
O32 B2 O31 116.7(5) . 3_566
loop_
_geom_bond_atom_site_label_1
_geom_bond_atom_site_label_2
_geom_bond_distance
_geom_bond_site_symmetry_2
Se1 O11 1.585(5) .
Se1 O12 1.602(5) .
Se1 O14 1.699(5) .
Se1 O13 1.702(5) .
Se2 O22 1.697(4) .
Se2 O21 1.701(4) .
Se2 O23 1.725(5) .
Se3 O31 1.699(4) .
Se3 O32 1.699(4) .
Se3 O33 1.715(5) .
O13 B1 1.477(8) .
O14 B1 1.472(8) 1_455
O21 B1 1.483(8) 2_655
O22 B2 1.459(8) 1_665
O23 B1 1.452(8) 1_565
O31 B2 1.475(8) 3_566
O32 B2 1.471(8) .
O33 B2 1.471(8) 3_466
B1 O23 1.452(8) 1_545
B1 O14 1.472(8) 1_655
B1 O21 1.483(8) 2_645
B2 O22 1.458(8) 1_445
B2 O33 1.471(8) 3_466
B2 O31 1.475(8) 3_566
