#------------------------------------------------------------------------------
#$Date: 2020-02-04 05:06:46 +0200 (Tue, 04 Feb 2020) $
#$Revision: 247519 $
#$URL: file:///home/coder/svn-repositories/cod/cif/4/51/73/4517316.cif $
#------------------------------------------------------------------------------
#
# This file is available in the Crystallography Open Database (COD),
# http://www.crystallography.net/
#
# All data on this site have been placed in the public domain by the
# contributors.
#
data_4517316
loop_
_publ_author_name
'Wang, Zujian'
'He, Jiangang'
'Hu, Bing'
'Shan, Pai'
'Xiong, Zheyao'
'Su, Rongbing'
'He, Chao'
'Yang, Xiaoming'
'Long, Xifa'
_publ_section_title
;
 Ca<sub>2</sub>B<sub>5</sub>O<sub>9</sub>Cl and
 Sr<sub>2</sub>B<sub>5</sub>O<sub>9</sub>Cl: Nonlinear Optical Crystals
 with Deep-Ultraviolet Transparency Windows.
;
_journal_issue                   4
_journal_name_full               'ACS applied materials &amp; interfaces'
_journal_page_first              4632
_journal_page_last               4637
_journal_paper_doi               10.1021/acsami.9b21072
_journal_volume                  12
_journal_year                    2020
_chemical_formula_moiety         'B10 O18, 2(Cl), 4(Ca)'
_chemical_formula_sum            'B10 Ca4 Cl2 O18'
_chemical_formula_weight         627.32
_space_group_crystal_system      orthorhombic
_space_group_IT_number           34
_space_group_name_Hall           'P 2 -2n'
_space_group_name_H-M_alt        'P n n 2'
_audit_creation_method           SHELXL-2016/6
_cell_angle_alpha                90
_cell_angle_beta                 90
_cell_angle_gamma                90
_cell_formula_units_Z            2
_cell_length_a                   11.1369(6)
_cell_length_b                   11.2626(5)
_cell_length_c                   6.2995(3)
_cell_measurement_reflns_used    2503
_cell_measurement_temperature    101.3(3)
_cell_measurement_theta_max      30.8640
_cell_measurement_theta_min      2.5750
_cell_volume                     790.15(7)
_computing_structure_refinement  'SHELXL-2016/6 (Sheldrick, 2016)'
_diffrn_ambient_temperature      101.3(3)
_diffrn_measured_fraction_theta_full 1.000
_diffrn_measured_fraction_theta_max 0.832
_diffrn_measurement_device_type  'ROD, Synergy Custom DW system, HyPix'
_diffrn_measurement_method       '\w scans'
_diffrn_radiation_type           MoK\a
_diffrn_radiation_wavelength     0.71073
_diffrn_reflns_av_R_equivalents  0.0398
_diffrn_reflns_av_unetI/netI     0.0529
_diffrn_reflns_Laue_measured_fraction_full 1.000
_diffrn_reflns_Laue_measured_fraction_max 0.832
_diffrn_reflns_limit_h_max       11
_diffrn_reflns_limit_h_min       -15
_diffrn_reflns_limit_k_max       14
_diffrn_reflns_limit_k_min       -15
_diffrn_reflns_limit_l_max       8
_diffrn_reflns_limit_l_min       -8
_diffrn_reflns_number            4267
_diffrn_reflns_point_group_measured_fraction_full 0.949
_diffrn_reflns_point_group_measured_fraction_max 0.723
_diffrn_reflns_theta_full        25.242
_diffrn_reflns_theta_max         30.788
_diffrn_reflns_theta_min         2.572
_diffrn_source                   'Rotating-anode X-ray tube'
_exptl_absorpt_coefficient_mu    1.814
_exptl_absorpt_correction_T_max  1.00000
_exptl_absorpt_correction_T_min  0.48984
_exptl_absorpt_correction_type   multi-scan
_exptl_absorpt_process_details
;
CrysAlisPro 1.171.40.14a (Rigaku Oxford Diffraction, 2018)
Empirical absorption correction using spherical harmonics,
 implemented in SCALE3 ABSPACK scaling algorithm.
;
_exptl_crystal_colour            colorless
_exptl_crystal_density_diffrn    2.637
_exptl_crystal_description       block
_exptl_crystal_F_000             616
_exptl_crystal_size_max          0.220
_exptl_crystal_size_mid          0.180
_exptl_crystal_size_min          0.150
_refine_diff_density_max         0.505
_refine_diff_density_min         -0.564
_refine_diff_density_rms         0.135
_refine_ls_abs_structure_details
;
 Flack x determined using 616 quotients [(I+)-(I-)]/[(I+)+(I-)]
 (Parsons, Flack and Wagner, Acta Cryst. B69 (2013) 249-259).
;
_refine_ls_abs_structure_Flack   0.06(4)
_refine_ls_extinction_method     none
_refine_ls_goodness_of_fit_ref   1.056
_refine_ls_hydrogen_treatment    undef
_refine_ls_matrix_type           full
_refine_ls_number_parameters     155
_refine_ls_number_reflns         1789
_refine_ls_number_restraints     1
_refine_ls_restrained_S_all      1.056
_refine_ls_R_factor_all          0.0327
_refine_ls_R_factor_gt           0.0309
_refine_ls_shift/su_max          0.000
_refine_ls_shift/su_mean         0.000
_refine_ls_structure_factor_coef Fsqd
_refine_ls_weighting_details
'w=1/[\s^2^(Fo^2^)+(0.0224P)^2^] where P=(Fo^2^+2Fc^2^)/3'
_refine_ls_weighting_scheme      calc
_refine_ls_wR_factor_gt          0.0633
_refine_ls_wR_factor_ref         0.0642
_reflns_Friedel_coverage         0.606
_reflns_Friedel_fraction_full    0.888
_reflns_Friedel_fraction_max     0.595
_reflns_number_gt                1706
_reflns_number_total             1789
_reflns_threshold_expression     'I > 2\s(I)'
_cod_data_source_file            am9b21072_si_002.cif
_cod_data_source_block           E:\single\WZJ-CA~1\bh
_cod_depositor_comments
'Adding full bibliography for 4517315--4517316.cif.'
_cod_database_code               4517316
_shelx_shelxl_version_number     2016/6
_shelx_space_group_comment
;
The symmetry employed for this shelxl refinement is uniquely defined
by the following loop, which should always be used as a source of
symmetry information in preference to the above space-group names.
They are only intended as comments.
;
_shelx_estimated_absorpt_t_min   0.691
_shelx_estimated_absorpt_t_max   0.773
_shelx_res_file
;
REM  BH in Pnn2
REM R1 =  0.0311 for    1706 Fo > 4sig(Fo)  and  0.0329 for all    1789 data
REM    155 parameters refined using      1 restraints
REM Highest difference peak  0.506,  deepest hole -0.599,  1-sigma level  0.137
REM  BH in Pnn2
REM R1 =  0.0309 for    1706 Fo > 4sig(Fo)  and  0.0327 for all    1789 data
REM    155 parameters refined using      1 restraints
REM Highest difference peak  0.505,  deepest hole -0.565,  1-sigma level  0.135
TITL BH in Pnn2
    E:\single\WZJ-CA~1\bh.res
    created by SHELXL-2016/6 at 16:46:14 on 15-Dec-2019
CELL 0.71073 11.1369 11.2626 6.2995 90.000 90.000 90.000
ZERR 2.0000 0.0006 0.0005 0.0003 0.000 0.000 0.000
LATT -1
SYMM -X, -Y, Z
SYMM 0.5-X, 0.5+Y, 0.5+Z
SYMM 0.5+X, 0.5-Y, 0.5+Z
SFAC B CA CL O
UNIT 20 8 4 36
MERG 2
FMAP 2
GRID
PLAN 20
TEMP -100
SIZE 0.22 0.18 0.15
BOND
L.S. 4
ACTA
WGHT    0.022400
FVAR       0.19737
CA1   2    0.743689    0.529016    0.511890    11.00000    0.00698    0.00659 =
         0.00493    0.00019   -0.00016   -0.00141
CA2   2    0.468581    0.243546    1.185089    11.00000    0.00512    0.00676 =
         0.00496   -0.00016    0.00039    0.00069
CL1   3    0.500000    0.500000    0.351827    10.50000    0.00627    0.00903 =
         0.01141    0.00000    0.00000   -0.00121
CL2   3    0.500000    0.000000    1.113373    10.50000    0.00668    0.00575 =
         0.01271    0.00000    0.00000   -0.00026
O3    4    0.712838    0.396902   -0.183474    11.00000    0.00893    0.00513 =
         0.00523   -0.00074    0.00046    0.00043
O5    4    0.798975    0.298055    0.428239    11.00000    0.00697    0.00413 =
         0.00339    0.00046   -0.00078   -0.00153
O6    4    0.599339    0.213567    0.479103    11.00000    0.00425    0.00971 =
         0.00670    0.00019    0.00090   -0.00018
O2    4    0.729206    0.591941   -0.095932    11.00000    0.00975    0.00382 =
         0.00463   -0.00026   -0.00271   -0.00078
O4    4    0.695593    0.248545    0.098375    11.00000    0.00496    0.00490 =
         0.00409   -0.00018    0.00157   -0.00042
O9    4    0.401769    0.221181    0.576865    11.00000    0.00452    0.01172 =
         0.00492    0.00066    0.00081   -0.00302
O8    4    0.551995    0.253518    0.839606    11.00000    0.00389    0.00754 =
         0.00622   -0.00018   -0.00009    0.00098
O7    4    0.755292    0.191013    0.744389    11.00000    0.00571    0.00494 =
         0.00267   -0.00109    0.00097    0.00044
O1    4    0.776590    0.444679    0.168680    11.00000    0.00999    0.00302 =
         0.00546    0.00090   -0.00064   -0.00197
B4    1    0.729065    0.198548    0.513415    11.00000    0.00743    0.00448 =
         0.00233    0.00096    0.00029    0.00225
B3    1    0.793383    0.313459    0.199953    11.00000    0.00581    0.00607 =
         0.00392   -0.00193    0.00136   -0.00087
B2    1    0.681827    0.272584   -0.125326    11.00000    0.00709    0.00575 =
         0.00580   -0.00145   -0.00269   -0.00181
B1    1    0.740712    0.477383   -0.028799    11.00000    0.00513    0.00635 =
         0.00838    0.00389    0.00295    0.00007
B5    1    0.518636    0.228130    0.638457    11.00000    0.00813    0.00409 =
         0.01074    0.00381    0.00268    0.00146
HKLF 4




REM  BH in Pnn2
REM R1 =  0.0309 for    1706 Fo > 4sig(Fo)  and  0.0327 for all    1789 data
REM    155 parameters refined using      1 restraints

END

WGHT      0.0224      0.0000

REM Highest difference peak  0.505,  deepest hole -0.564,  1-sigma level  0.135
Q1    1   0.4226  0.5934  0.5282  11.00000  0.05    0.51
Q2    1   0.5408  0.1390  1.0001  11.00000  0.05    0.49
Q3    1   0.7961  0.1255  0.8872  11.00000  0.05    0.46
Q4    1   0.5806  0.1237  0.9128  11.00000  0.05    0.45
Q5    1   0.7635  0.6390 -0.0618  11.00000  0.05    0.45
Q6    1   0.5603  0.1244  0.4265  11.00000  0.05    0.43
Q7    1   0.7324  0.5953 -0.1837  11.00000  0.05    0.40
Q8    1   0.5976  0.1389  0.1503  11.00000  0.05    0.40
Q9    1   0.8082  0.3565  0.5010  11.00000  0.05    0.40
Q10   1   0.5005  0.5837  0.3648  11.00000  0.05    0.39
Q11   1   0.3568  0.1579  1.1703  11.00000  0.05    0.39
Q12   1   0.6820  0.6051 -0.0567  11.00000  0.05    0.39
Q13   1   0.5018  0.6140  0.5412  11.00000  0.05    0.39
Q14   1   0.6046  0.1075  0.2928  11.00000  0.05    0.39
Q15   1   0.7825  0.3937  0.1797  11.00000  0.05    0.39
Q16   1   0.6401  0.4131  0.1129  11.00000  0.05    0.37
Q17   1   0.4816  0.5807  0.1703  11.00000  0.05    0.37
Q18   1   0.5431  0.6399  0.4405  11.00000  0.05    0.37
Q19   1   0.6374  0.6322 -0.2688  11.00000  0.05    0.36
Q20   1   0.5257  0.1454  1.2626  11.00000  0.05    0.36
;
_shelx_res_checksum              14184
_shelx_hkl_file
;
   0   0   5    0.35    0.37
   0   0   4   29.96    2.11
   0   0   3    0.09    0.26
   0   0  -1    0.07    0.09
   0   0  -2   88.45    3.12
   0   0  -5    0.26    0.55
   0   0  -6  154.26    7.55
   0   0  -7    0.24    0.55
  -1   0   6    0.41    0.42
  -1   0   5   22.72    1.93
  -1   0   4    0.11    0.20
  -1   0   3  218.98    7.26
  -1   0   1   89.38    3.09
   1   0  -2    0.08    0.24
  -1   0  -2    0.07    0.22
  -1   0  -3  215.46    7.25
   1   0  -3  216.70    7.90
  -1   0  -4    0.09    0.23
   1   0  -4   -0.16    0.45
   1   0  -5   21.36    1.99
   1   0  -6    0.19    0.39
   1   0  -7   18.46    1.86
  -1   0  -7   20.27    2.66
  -2   0   7    0.24    0.49
  -2   0   6    4.79    0.97
  -2   0   5   -0.14    0.28
  -2   0   4  240.38    8.20
  -2   0   2  362.66   11.67
  -2   0   1   -0.04    0.13
   2   0   0  404.41   12.55
   2   0  -1    0.05    0.18
   2   0  -2  359.76   10.97
   2   0  -3   -0.08    0.22
  -2   0  -3    0.21    0.28
   2   0  -4  242.09    8.52
  -2   0  -4  248.34    8.57
   2   0  -5    0.13    0.32
  -2   0  -5    0.12    0.25
   2   0  -6    6.62    0.99
   2   0  -7   -0.14    0.31
  -3   0   7   26.50    2.47
  -3   0   6   -0.17    0.31
  -3   0   5  117.13    4.91
  -3   0   4    0.09    0.22
  -3   0   3   14.58    1.57
  -3   0   2    0.16    0.25
  -3   0   1  480.05   14.55
   3   0   0   -0.11    0.32
  -3   0  -1  480.45   15.32
   3   0  -1  468.98   13.98
  -3   0  -3   18.00    1.62
   3   0  -3   19.61    1.23
   3   0  -4    0.17    0.21
  -3   0  -4    0.14    0.37
   3   0  -5  125.76    4.95
  -3   0  -5  126.99    5.40
   3   0  -6   -0.11    0.21
  -3   0  -6   -0.14    0.33
   3   0  -7   29.04    1.92
  -4   0   8   15.73    2.04
  -4   0   7    0.20    0.38
  -4   0   6  124.11    5.48
  -4   0   5   -0.12    0.27
  -4   0   3   -0.14    0.34
  -4   0   2   27.81    1.64
   4   0   1   -0.16    0.43
  -4   0   1    0.07    0.21
   4   0   0 2036.29   59.92
  -4   0  -1    0.16    0.40
  -4   0  -2   24.59    2.26
   4   0  -2   23.84    1.45
  -4   0  -4   26.57    2.21
  -4   0  -5   -0.17    0.31
  -4   0  -6  123.44    5.57
  -5   0   8   -0.24    0.50
  -5   0   7   62.97    3.80
  -5   0   6   -0.15    0.27
  -5   0   4   -0.22    0.47
  -5   0   3    3.91    0.76
  -5   0   2   -0.09    0.17
   5   0   1  254.00   10.28
  -5   0   1  275.73    8.89
   5   0   0    0.92    0.51
  -5   0  -1  280.14   10.59
  -5   0  -2   -0.23    0.38
   5   0  -2    0.13    0.20
   5   0  -3    4.41    0.72
   5   0  -4   -0.17    0.31
  -5   0  -4    0.20    0.42
  -5   0  -5   48.46    3.29
  -5   0  -6    0.19    0.47
  -6   0   8   25.52    2.50
  -6   0   6   10.39    1.24
  -6   0   4  294.20   11.24
  -6   0   3    0.14    0.32
  -6   0   2  170.72    6.35
   6   0   1    0.24    0.54
  -6   0   1   -0.10    0.23
   6   0   0  128.61    6.34
  -6   0  -1   -0.22    0.46
  -6   0  -2  162.72    7.81
   6   0  -3    0.09    0.25
  -6   0  -3   -0.31    0.65
   6   0  -4  293.02   10.13
  -6   0  -5    0.23    0.47
   6   0  -5    0.35    0.43
  -6   0  -6   10.99    1.57
   6   0  -6    9.35    1.51
   6   0  -7    0.26    0.59
  -7   0   7   17.49    1.82
  -7   0   5   33.32    3.29
  -7   0   4   -0.21    0.48
  -7   0   3   55.45    3.17
  -7   0   2    0.13    0.29
  -7   0   1  236.88    8.47
   7   0   1  248.32   10.43
   7   0   0   -0.26    0.55
  -7   0  -2   -0.29    0.39
  -7   0  -3   52.80    4.32
  -7   0  -4   -0.40    0.75
   7   0  -4    0.29    0.29
  -7   0  -5   43.92    4.59
  -7   0  -5   45.63    3.51
   7   0  -5   38.71    2.47
   7   0  -6    0.16    0.43
  -8   0   7   -0.17    0.36
  -8   0   5    0.31    0.57
  -8   0   4   38.09    2.96
  -8   0   3   -0.16    0.30
  -8   0   2   66.25    3.80
   8   0   1   -0.32    0.51
  -8   0   1    0.13    0.31
   8   0   0  166.43    8.26
  -8   0  -2   60.09    4.58
  -8   0  -3   -0.37    0.48
  -8   0  -4   36.89    4.01
  -8   0  -5    0.49    0.92
   8   0  -5   -0.19    0.25
   8   0  -6   27.28    1.88
  -8   0  -6   20.08    3.39
  -9   0   7   47.78    3.15
  -9   0   5   72.89    5.05
  -9   0   4    0.45    0.51
  -9   0   3    2.35    0.70
  -9   0   2   -0.19    0.40
  -9   0   1   38.38    2.58
   9   0   1   40.61    3.86
  -9   0   0    0.29    0.38
   9   0   0   -0.34    0.64
   9   0  -1   38.09    3.58
  -9   0  -2   -0.35    0.65
  -9   0  -3    1.58    0.97
  -9   0  -4   -0.45    0.94
  -9   0  -5   56.05    5.48
  -9   0  -6    0.57    0.75
 -10   0   7    0.18    0.37
 -10   0   5   -0.32    0.59
 -10   0   4  133.29    6.57
 -10   0   3    0.20    0.46
 -10   0   2   -0.21    0.48
  10   0   1    0.79    0.83
 -10   0   1   -0.17    0.36
  10   0   0    9.16    1.89
 -10   0   0    6.95    1.06
  10   0  -1   -0.37    0.68
 -10   0  -3   -0.42    0.87
 -10   0  -4  142.88    8.93
 -10   0  -5    0.54    1.01
 -11   0   5   10.76    1.97
 -11   0   4   -0.26    0.48
 -11   0   3   63.52    4.02
 -11   0   2   -0.23    0.47
 -11   0   2   -0.20    0.38
 -11   0   1   12.86    1.60
  11   0   1   18.26    2.83
  11   0   0    0.42    0.88
 -11   0   0   -0.18    0.38
  11   0  -1   12.67    2.31
 -11   0  -4   -0.50    1.03
 -12   0   4   56.74    4.10
 -12   0   3   -0.24    0.45
 -12   0   2   67.45    4.42
 -12   0   2   79.98    4.54
 -12   0   1   -0.21    0.49
 -12   0   0   11.99    1.60
 -12   0  -1    0.21    0.34
 -13   0   4    0.29    0.55
 -13   0   3   17.41    2.18
 -13   0   2   -0.24    0.45
 -13   0   1   35.96    3.00
 -13   0   0   -0.23    0.47
 -13   0  -1   32.50    2.81
 -14   0   3   -0.28    0.45
 -14   0   2   26.76    2.73
 -14   0   0   37.07    3.11
 -14   0  -1   -0.25    0.46
 -14   0  -2   21.92    2.44
 -15   0  -2   -0.28    0.58
   0  -1   5   28.07    2.36
   0  -1   4    0.14    0.29
   0  -1   3  152.69    5.61
   0   1   3  144.95    5.41
   0   1   2    0.16    0.20
   0  -1   1   58.97    2.14
   0   1   0    0.04    0.12
   0  -1   0    0.10    0.09
   0   1   0    0.26    0.15
   0  -1   0    0.18    0.12
   0  -1  -1   61.30    1.97
   0   1  -1   59.89    2.15
   0  -1  -2    0.07    0.13
   0  -1  -5   24.70    2.79
   0   1  -5   24.95    2.40
   0   1  -6   -0.22    0.54
   0  -1  -6    0.90    0.74
   0   1  -7   50.92    3.38
   0  -1  -7   46.23    3.84
  -1  -1   6   24.02    2.31
  -1  -1   5   14.91    1.58
  -1   1   5   14.22    1.47
  -1  -1   4    6.13    0.86
   1  -1   4    5.66    0.99
  -1   1   4    5.79    0.78
   1  -1   3  266.71    9.46
  -1  -1   3  275.11    8.91
  -1   1   3  270.95    8.66
  -1   1   2  162.84    5.11
  -1   1   1    4.49    0.62
  -1   1   0    5.42    0.47
  -1   1   0    5.05    0.39
   1  -1   0    4.69    0.42
  -1   1  -1    3.68    0.46
  -1   1  -2  167.14    5.75
   1  -1  -2  173.27    6.40
  -1  -1  -2  166.88    5.68
  -1  -1  -3  268.39    8.77
  -1   1  -3  281.80    8.96
   1   1  -3  264.50    8.94
   1  -1  -3  270.23    9.98
  -1  -1  -4    4.87    0.65
   1   1  -4    4.72    0.80
   1  -1  -4    5.20    1.08
  -1   1  -4    7.04    0.82
   1  -1  -5   12.05    1.69
   1   1  -5   10.61    1.26
  -1  -1  -6   24.97    3.14
   1  -1  -6   25.03    2.42
   1   1  -6   25.03    1.99
   1   1  -7    1.19    0.46
  -1  -1  -7    1.85    1.14
  -1   1  -7    0.29    0.66
   1  -1  -7    1.52    0.76
  -1  -1  -8    0.33    0.68
  -2  -1   7   25.06    2.55
  -2  -1   6   16.60    1.82
  -2   1   6   13.70    1.57
  -2   1   5   41.32    2.51
  -2  -1   5   42.85    2.66
  -2  -1   4   29.96    1.92
  -2   1   4   31.59    1.82
  -2   1   3  477.63   14.38
  -2   1   2   82.29    3.83
  -2  -1   2   75.19    2.94
  -2   1   1   23.27    1.35
  -2   1   0    0.43    0.21
   2  -1   0    0.28    0.27
  -2   1  -2   82.86    3.54
   2  -1  -2   78.01    3.28
   2  -1  -3  442.12   14.49
   2   1  -3  456.11   13.50
  -2   1  -3  452.40   14.41
  -2  -1  -3  448.92   14.38
  -2  -1  -4   30.17    1.95
   2   1  -4   31.96    1.69
   2  -1  -4   27.96    2.14
  -2   1  -4   31.72    2.05
   2   1  -5   45.92    2.29
  -2  -1  -5   42.87    2.43
   2  -1  -5   41.38    2.79
  -2   1  -5   42.92    2.54
   2   1  -6   15.99    1.29
   2  -1  -6   13.19    1.55
   2   1  -7   25.34    1.64
  -2  -1  -7   21.66    3.32
   2  -1  -7   21.65    2.04
  -2  -1  -8   26.02    3.43
  -3  -1   8    1.71    0.92
  -3   1   7   12.42    1.65
  -3  -1   7   13.17    1.82
  -3   1   6   21.00    1.89
  -3  -1   6   19.68    1.90
  -3   1   5  109.25    4.70
  -3  -1   5  123.92    5.06
  -3   1   4    3.37    0.54
  -3   1   3   15.06    1.79
  -3  -1   3   18.62    1.55
  -3  -1   2   27.97    1.40
  -3   1   2   30.12    1.96
  -3   1   1   56.68    2.78
  -3   1   1   55.19    2.42
   3  -1   0    6.49    0.86
  -3   1   0    5.30    0.59
  -3  -1  -1   56.28    3.02
   3  -1  -1   51.56    2.38
   3  -1  -2   25.34    1.97
   3  -1  -2   28.01    1.57
   3  -1  -3   19.69    1.42
  -3   1  -3   20.13    1.69
   3  -1  -4    2.44    0.57
  -3  -1  -4    2.65    0.67
  -3   1  -4    3.09    0.73
  -3   1  -5  118.46    5.22
  -3  -1  -5  124.53    5.21
   3  -1  -5  111.11    5.01
   3   1  -5  121.42    4.34
   3   1  -6   23.08    1.41
  -3  -1  -6   20.77    1.75
   3  -1  -6   20.60    1.79
  -3   1  -6   20.97    1.84
   3  -1  -7   15.38    1.56
  -4  -1   8    3.47    1.03
  -4   1   8    3.11    1.02
  -4  -1   7   41.53    3.13
  -4   1   7   40.47    2.92
  -4  -1   6    7.93    1.20
  -4   1   6    9.91    1.22
  -4  -1   5   32.18    2.11
  -4   1   5   28.50    1.88
  -4   1   4   11.21    1.82
  -4  -1   3   90.40    3.99
  -4   1   3  103.06    4.94
  -4  -1   2  189.42    6.32
  -4   1   2  194.29    6.98
  -4   1   1  124.80    4.91
   4  -1   1  124.09    5.56
  -4  -1   1  123.65    4.10
   4  -1   0   15.64    1.54
  -4   1   0   12.29    1.01
  -4  -1  -1  126.25    5.63
   4  -1  -1  126.53    4.58
   4  -1  -2  186.49    6.82
  -4  -1  -2  186.97    7.95
  -4   1  -3   88.09    4.53
   4  -1  -3  101.38    4.89
   4  -1  -4   11.70    1.13
  -4  -1  -4    9.92    1.34
  -4   1  -4   10.64    1.36
  -4  -1  -5   29.84    2.28
   4  -1  -5   26.08    1.87
  -4   1  -5   25.37    2.15
  -4   1  -6   11.30    1.42
   4  -1  -6    9.80    1.13
  -4  -1  -6   10.00    1.33
   4  -1  -7   46.91    2.69
  -4  -1  -7   43.74    2.84
  -5   1   8    2.02    0.75
  -5  -1   8    1.02    0.75
  -5  -1   7   26.09    2.36
  -5   1   7   24.70    2.18
  -5  -1   6   17.66    1.69
  -5   1   6   17.35    1.58
  -5   1   4   27.93    2.76
  -5  -1   4   25.51    2.25
  -5   1   3   68.84    3.68
  -5  -1   3   56.03    2.87
  -5   1   2  171.11    6.45
  -5  -1   1  200.47    6.56
   5  -1   1  194.59    8.29
  -5   1   1  214.45    7.47
   5  -1   0   21.07    1.98
  -5   1   0   19.34    1.44
  -5  -1  -1  191.09    7.95
  -5  -1  -2  157.59    7.36
   5  -1  -2  161.96    5.96
   5  -1  -3   51.16    3.02
   5   1  -3   57.45    2.43
  -5   1  -4   23.07    2.16
   5   1  -4   26.08    1.91
   5  -1  -4   19.87    2.06
  -5  -1  -5    7.71    1.25
  -5   1  -5    7.17    1.20
  -5   1  -6   15.35    1.74
  -5  -1  -6   16.11    1.78
  -6  -1   8   36.76    3.09
  -6   1   7   30.68    2.40
  -6  -1   7   30.71    2.53
  -6  -1   6   18.48    1.74
  -6   1   6   19.87    1.67
  -6  -1   4  265.55    9.97
  -6   1   4  274.20   11.00
  -6  -1   3  151.43    5.93
  -6   1   3  164.94    6.71
  -6   1   2   26.87    1.93
  -6   1   1    3.12    0.66
  -6  -1   1    3.93    0.56
  -6   1   0   30.50    2.02
   6  -1   0   37.31    2.93
  -6  -1  -1    3.33    0.86
  -6  -1  -2   27.62    2.73
   6  -1  -2   26.04    1.67
  -6  -1  -3  152.10    7.94
   6  -1  -3  152.00    5.96
   6   1  -4  269.38    8.80
   6  -1  -4  261.88    9.78
  -6   1  -4  268.87   10.64
   6   1  -5   53.91    2.97
  -6   1  -5   50.81    3.56
  -6  -1  -5   59.12    3.86
   6  -1  -5   47.68    3.45
  -6  -1  -6   21.72    2.20
   6   1  -6   18.05    1.90
   6  -1  -6   21.13    2.41
   6  -1  -7   23.30    2.69
  -7  -1   8    4.62    1.17
  -7  -1   7   61.79    3.73
  -7   1   7   62.73    3.53
  -7   1   6   19.48    1.67
  -7  -1   5   48.93    3.80
  -7   1   5   49.48    4.32
  -7   1   4    7.44    1.44
  -7  -1   4    6.16    1.09
  -7  -1   3   25.56    1.88
  -7   1   3   29.50    2.33
  -7   1   2   15.70    1.51
  -7   1   1   84.09    4.13
   7  -1   1   86.46    5.24
  -7  -1   1   84.11    3.54
  -7   1   0    9.78    1.13
   7  -1   0    7.67    1.52
  -7  -1  -2   12.62    1.93
  -7  -1  -3   24.53    2.96
   7  -1  -3   29.24    1.88
   7  -1  -4    4.88    0.86
  -7  -1  -4    4.86    1.52
  -7  -1  -5   49.85    4.94
  -7  -1  -5   52.43    3.89
   7   1  -5   51.76    2.47
  -7   1  -5   48.80    3.72
   7  -1  -5   57.84    3.36
   7   1  -6   16.52    1.46
   7  -1  -6   17.59    1.94
  -8   1   7   38.46    2.61
  -8  -1   7   32.43    2.59
  -8   1   5   27.44    3.15
  -8  -1   5   26.10    2.73
  -8   1   4   30.81    2.84
  -8  -1   4   33.96    2.55
  -8   1   3   28.91    2.37
  -8  -1   3   24.81    1.96
  -8   1   2   27.95    2.55
  -8   1   2   29.66    2.25
  -8   1   1   75.67    3.99
   8  -1   1   73.28    5.09
  -8  -1   1   73.52    3.40
  -8   1   0   10.59    1.27
   8  -1   0   12.45    1.98
   8  -1  -1   65.01    4.51
  -8  -1  -2   26.60    2.97
  -8  -1  -3   23.09    2.89
   8  -1  -4   33.53    2.11
  -8  -1  -4   30.95    3.70
   8  -1  -5   25.35    1.96
  -8  -1  -5   29.59    3.86
   8  -1  -6   45.92    2.96
  -8  -1  -6   54.68    5.45
   8   1  -6   47.95    2.11
  -9  -1   7   14.72    1.73
  -9   1   7   15.67    1.65
  -9   1   5    5.68    1.53
  -9  -1   5    7.59    1.48
  -9   1   4   12.97    1.86
  -9  -1   4   14.61    1.71
  -9  -1   3  115.68    5.30
  -9   1   3  122.32    5.83
  -9   1   2   91.61    5.10
  -9   1   2   77.47    4.29
  -9  -1   2   87.03    4.23
  -9  -1   1  148.24    5.86
  -9   1   1  156.11    6.62
   9  -1   1  137.01    7.94
   9  -1   0    8.60    1.74
  -9   1   0    6.48    1.08
   9  -1  -1  145.14    7.80
  -9  -1  -2   94.32    6.05
  -9  -1  -3  112.25    7.14
  -9  -1  -4    9.06    2.04
   9  -1  -5    5.98    0.86
  -9  -1  -5    6.75    1.94
 -10  -1   5   54.25    4.06
 -10   1   5   57.80    4.72
 -10   1   4   48.56    3.79
 -10  -1   4   49.39    3.39
 -10   1   3   54.94    3.72
 -10  -1   3   57.84    3.46
 -10   1   2   25.38    2.62
 -10   1   2   30.35    2.49
 -10  -1   2   25.37    2.15
 -10  -1   1    3.47    0.78
  10  -1   1    2.78    1.29
 -10   1   1    2.44    0.76
  10  -1   0   51.02    4.64
 -10  -1   0   59.65    3.30
  10  -1  -1    1.48    1.03
 -10  -1  -3   53.79    4.79
 -10  -1  -4   46.25    4.82
 -10  -1  -5   57.35    5.69
 -11   1   5   46.13    4.25
 -11   1   4    2.86    0.97
 -11  -1   4    5.26    1.13
 -11  -1   3   14.05    1.69
 -11   1   3   12.40    1.79
 -11   1   2   24.17    2.37
 -11  -1   2   26.21    2.24
 -11   1   2   28.21    2.78
 -11   1   1    9.65    1.51
 -11  -1   1   12.34    1.45
  11  -1   1   10.91    2.28
 -11   1   0   15.64    1.84
  11  -1   0   15.66    2.59
 -11  -1   0   14.69    1.55
  11  -1  -1   12.34    2.33
 -11   1  -1   13.76    1.72
 -11  -1  -4    3.97    1.46
 -12   1   4    1.82    0.98
 -12  -1   4    0.99    0.73
 -12  -1   3   11.11    1.59
 -12   1   3   13.19    1.92
 -12   1   2    7.21    1.38
 -12   1   2    9.21    1.71
 -12  -1   1   61.16    3.54
 -12   1   1   47.59    3.65
 -12   1   0    4.40    1.06
 -12  -1   0    3.22    0.82
 -12   1  -1   56.49    3.79
 -13   1   4    6.46    1.57
 -13  -1   3   40.19    3.20
 -13   1   3   38.74    3.47
 -13   1   2   34.93    3.11
 -13  -1   1   15.66    1.86
 -13   1   1   19.85    2.37
 -13   1   0   14.73    1.96
 -13  -1   0    9.58    1.42
 -13   1  -1   15.63    2.04
 -13  -1  -1   18.24    1.99
 -13   1  -2   37.39    3.27
 -14  -1   3   16.82    2.12
 -14   1   3   15.56    2.23
 -14  -1   2   10.36    1.63
 -14   1   2   10.11    1.76
 -14   1   0   10.29    1.78
 -14  -1  -1    1.58    0.67
 -14   1  -1    1.08    0.76
 -14   1  -2    8.12   24.86
 -15   1  -1    9.73    1.74
 -15  -1  -2   19.95    2.39
   0  -2   6   26.17    2.58
   0  -2   5    0.19    0.44
   0  -2   4  108.42    4.91
   0  -2   1   -0.04    0.12
   0  -2   0  377.63   11.79
   0  -2   0  383.15   11.78
   0   2  -1    0.07    0.10
   0  -2  -1   -0.28    0.39
   0  -2  -2  225.62    6.80
   0  -2  -3    0.04    0.11
   0  -2  -4   89.99    5.74
   0  -2  -5   -0.33    0.62
   0   2  -5    0.18    0.49
   0  -2  -6   22.47    2.79
   0   2  -6   25.02    2.14
   0   2  -7    0.29    0.38
   0  -2  -7    0.32    0.72
   0  -2  -8   85.12    5.44
  -1  -2   7   48.32    3.83
  -1  -2   6    7.37    1.35
  -1  -2   5   84.73    4.38
   1  -2   4   36.95    2.62
  -1  -2   4   34.86    2.24
  -1   2   4   31.97    1.95
  -1   2   3  370.66   11.40
   1  -2   2   65.26    3.06
  -1   2   2   66.38    2.24
  -1   2   1   19.09    1.55
   1  -2   1   17.14    1.13
   1  -2   0    0.22    0.17
   1  -2   0   -0.06    0.19
  -1   2   0    0.07    0.25
   1  -2   0   -0.05    0.17
   1  -2  -1   15.96    1.28
  -1   2  -1   16.82    1.04
   1   2  -1   18.23    0.85
  -1   2  -2   65.94    2.80
  -1   2  -3  355.66   11.80
  -1  -2  -3  384.06   11.57
   1  -2  -3  369.44   13.30
  -1  -2  -4   32.48    1.74
  -1   2  -4   32.10    1.96
   1   2  -5   76.74    3.33
   1  -2  -5   76.06    4.72
   1   2  -6    6.12    0.78
  -1  -2  -6    6.75    1.85
   1  -2  -6    6.98    1.37
  -1  -2  -7   49.08    4.62
  -1   2  -7   55.16    3.77
   1  -2  -7   48.43    3.68
  -1  -2  -8   38.62    3.89
  -2  -2   8   47.73    4.06
  -2  -2   7    2.33    0.94
  -2  -2   6  220.65    8.95
  -2   2   5    2.96    0.63
  -2  -2   5    3.24    0.74
  -2   2   4  141.18    5.19
  -2  -2   4  147.40    5.67
  -2   2   3    3.53    0.41
  -2   2   2   68.45    3.87
  -2   2   1   39.54    2.18
   2  -2   0  240.80    7.84
   2  -2   0  233.09    7.73
  -2   2   0  239.16    7.62
  -2   2   0  244.49    7.94
   2  -2  -2   63.25    3.07
  -2   2  -2   63.15    2.99
   2  -2  -3    2.18    0.65
  -2  -2  -3    3.11    0.61
  -2   2  -3    3.15    0.60
  -2  -2  -4  145.59    5.58
  -2   2  -4  147.95    5.81
   2  -2  -4  150.12    6.51
  -2  -2  -5    3.02    0.60
  -2   2  -5    3.54    0.71
   2  -2  -5    3.97    0.98
   2  -2  -6  215.17    8.83
   2  -2  -7    3.31    0.87
  -2  -2  -7    1.92    1.55
  -3  -2   8   19.60    2.46
  -3  -2   7   27.04    2.63
  -3   2   6   18.03    1.67
  -3  -2   6   20.48    2.00
  -3  -2   5  149.29    6.09
  -3   2   5  145.64    5.60
  -3   2   4   11.24    0.92
  -3   2   3  107.82    5.84
  -3  -2   2   20.41    0.98
  -3   2   2   24.04    1.92
  -3   2   1   15.90    1.25
  -3   2   1   15.82    1.51
   3  -2   0   11.33    1.13
  -3   2   0    9.28    0.94
  -3  -2  -1   16.93    1.51
   3  -2  -2   22.17    1.98
   3  -2  -2   23.32    1.58
  -3   2  -2   22.87    1.76
   3  -2  -3  118.36    4.88
  -3   2  -3  111.98    4.97
  -3  -2  -4   12.07    1.31
  -3   2  -4   14.12    1.42
   3  -2  -4   11.67    1.33
   3  -2  -5  153.14    6.33
  -3  -2  -5  141.07    5.83
  -3   2  -5  144.88    6.05
  -3  -2  -6   18.57    1.61
  -3   2  -6   21.15    1.84
   3  -2  -6   18.64    1.87
   3  -2  -7   24.52    2.19
  -4  -2   8   50.74    3.96
  -4   2   7    3.39    0.82
  -4  -2   7    2.92    0.89
  -4   2   6   16.22    1.52
  -4  -2   6   16.05    1.75
  -4  -2   5    3.33    0.70
  -4   2   5    3.68    0.65
  -4   2   4   85.82    5.71
  -4  -2   3    7.08    0.75
  -4   2   3    7.17    1.30
  -4   2   2  379.90   12.81
  -4   2   1   41.01    2.28
  -4  -2   1   43.98    1.48
  -4   2   1   37.84    2.57
  -4   2   0  229.94    7.99
   4  -2   0  229.81    8.57
   4  -2  -1   43.22    2.34
  -4  -2  -1   43.42    2.81
  -4  -2  -2  378.56   13.43
   4  -2  -2  366.06   12.56
   4  -2  -3    8.17    0.96
  -4   2  -3    5.79    1.00
   4  -2  -3    5.58    1.14
  -4  -2  -4   82.24    4.32
  -4   2  -4   87.79    4.36
   4  -2  -4   82.59    3.92
  -4   2  -5    5.26    1.02
  -4  -2  -5    3.15    0.83
   4  -2  -5    4.98    0.88
  -4  -2  -6   18.18    1.71
   4  -2  -6   17.62    1.71
  -4   2  -6   13.46    1.59
   4  -2  -7    4.27    0.84
  -4  -2  -7    2.81    0.68
  -5  -2   8   20.37    2.41
  -5   2   7    9.14    1.28
  -5  -2   7    8.93    1.40
  -5   2   6    6.36    0.93
  -5  -2   6    6.39    1.08
  -5   2   5   11.79    1.08
  -5   2   4   13.13    2.08
  -5  -2   4    9.86    1.26
  -5  -2   3   18.26    1.27
  -5   2   3   17.63    1.92
  -5   2   2   25.27    1.98
  -5   2   1  192.07    7.48
  -5   2   1  198.03    6.98
  -5  -2   1  183.39    5.91
   5  -2   1  202.92    8.08
   5  -2   0   32.94    2.56
  -5   2   0   32.89    2.12
   5  -2  -1  196.29    7.11
  -5  -2  -1  211.42    8.31
   5  -2  -2   28.41    1.97
  -5  -2  -2   21.31    2.28
   5  -2  -3   17.61    1.82
  -5   2  -3   23.46    2.12
  -5   2  -4   11.91    1.51
   5  -2  -4    6.93    1.33
  -5   2  -5   11.57    1.52
   5  -2  -5   11.02    1.28
  -5  -2  -5   10.00    1.43
   5  -2  -5    6.82    1.51
  -5   2  -6    4.06    0.93
  -5  -2  -6    4.37    0.94
  -5  -2  -7    6.91    1.11
  -6  -2   8   41.16    3.34
  -6  -2   7    2.05    0.72
  -6   2   7    3.80    0.81
  -6   2   6   44.99    2.61
  -6  -2   6   46.66    3.01
  -6  -2   4   67.77    3.56
  -6   2   4   75.70    4.96
  -6   2   3    6.79    1.20
  -6  -2   3    6.69    0.81
  -6   2   2   41.99    2.71
  -6   2   1   20.22    1.90
  -6   2   1   24.82    1.82
  -6  -2   1   23.41    1.21
   6  -2   1   19.03    2.16
  -6   2   0   11.08    1.25
   6  -2   0    9.48    1.49
  -6  -2  -1   25.19    2.40
   6  -2  -2   41.80    2.45
  -6  -2  -2   39.17    3.32
  -6  -2  -3    5.94    1.37
   6  -2  -3    4.92    0.92
   6  -2  -4   76.63    4.29
  -6  -2  -4   85.47    5.94
  -6   2  -4   72.72    5.53
  -6   2  -4   80.61    4.56
   6   2  -4   76.43    2.61
   6  -2  -5    2.19    0.88
  -6   2  -5    1.31    0.61
  -6  -2  -5    3.48    0.92
   6  -2  -6   48.28    3.85
  -6  -2  -6   43.79    3.21
   6   2  -6   43.72    2.66
   6  -2  -7    2.94    1.10
  -7   2   7    7.95    1.12
  -7  -2   7    7.63    1.30
  -7   2   6    5.62    0.89
  -7   2   5   23.05    3.15
  -7   2   4   14.43    2.12
  -7  -2   4   15.01    1.49
  -7   2   3   21.85    2.16
  -7  -2   3   23.42    1.65
  -7   2   2   13.48    1.51
   7  -2   1   34.02    3.13
  -7  -2   1   38.40    1.82
  -7   2   1   33.51    2.63
   7   2   1   32.31    3.04
  -7   2   0   73.24    3.83
   7  -2   0   72.75    4.65
   7   2   0   64.55    4.42
  -7  -2  -2   11.35    1.80
   7  -2  -3   24.35    1.92
  -7  -2  -3   20.67    2.74
  -7   2  -4   12.22    2.23
   7  -2  -4   12.63    1.56
  -7  -2  -4   16.52    2.60
  -7   2  -4   14.13    1.89
  -7   2  -5   28.17    2.74
   7  -2  -5   31.30    2.60
  -7  -2  -5   30.39    3.83
  -7   2  -5   30.76    3.77
   7  -2  -6    5.03    1.14
   7   2  -6    3.20    0.45
  -7   2  -6    4.16    1.54
  -8  -2   7   13.53    1.65
  -8   2   7    9.15    1.21
  -8   2   5    3.98    1.54
  -8  -2   5    6.77    1.30
  -8  -2   4   26.22    2.09
  -8   2   4   24.44    2.71
  -8   2   3   17.28    1.97
  -8  -2   3   14.28    1.37
  -8   2   2   58.16    3.59
  -8   2   2   65.62    4.37
   8  -2   1   18.91    2.50
  -8   2   1   19.76    2.05
   8   2   1   25.67    2.83
  -8  -2   1   22.28    1.44
   8  -2   0  336.52   13.75
  -8   2   0  355.15   12.31
   8   2   0  331.10   13.66
   8  -2  -1   26.86    2.80
   8   2  -1   24.91    2.68
  -8  -2  -2   67.04    4.84
  -8  -2  -3   15.30    2.39
   8  -2  -3   16.03    1.49
  -8   2  -3   13.73    2.30
  -8   2  -4   20.47    2.43
  -8  -2  -4   23.10    3.15
  -8   2  -4   26.00    3.30
   8  -2  -4   21.10    1.84
  -8  -2  -5    8.80    2.19
  -8   2  -5    5.30    1.75
   8  -2  -5    5.94    1.07
  -8  -2  -6   25.21    3.74
   8  -2  -6   28.35    2.46
  -8   2  -6   27.63    3.95
  -9  -2   5    6.29    1.30
  -9   2   5    6.40    1.72
  -9   2   4    5.08    1.28
  -9  -2   4    2.04    0.66
  -9   2   3    9.36    1.51
  -9  -2   3   10.70    1.24
  -9   2   2    3.00    0.81
  -9   2   2    1.68    0.79
  -9  -2   1   25.32    1.68
   9   2   1   22.90    2.87
   9  -2   1   20.67    2.78
  -9   2   1   25.36    2.34
   9   2   0   49.34    4.14
   9  -2   0   52.50    4.36
  -9   2   0   47.22    3.25
  -9   2  -1   25.93    2.28
   9   2  -1   28.87    3.10
   9  -2  -1   27.48    3.09
  -9  -2  -2    1.37    0.90
  -9  -2  -3    9.39    1.98
  -9   2  -3    8.53    1.93
  -9  -2  -4    4.95    1.63
  -9   2  -4    3.53    1.30
  -9   2  -5    7.08    2.01
  -9  -2  -5    7.21    2.10
   9  -2  -5    7.09    1.06
 -10   2   5    4.44    1.46
 -10  -2   4   55.96    3.49
 -10   2   4   60.93    4.47
 -10  -2   3   10.99    1.35
 -10   2   3    9.29    1.54
 -10   2   2  168.30    8.46
 -10   2   2  194.30    8.13
 -10   2   1    0.95    0.67
  10   2   1    0.78    0.73
 -10  -2   1    1.31    0.44
  10  -2   1    0.79    0.74
  10  -2   0    7.33    1.74
 -10   2   0    7.18    1.30
  10   2   0    7.17    1.73
  10  -2  -1    1.86    0.98
 -10   2  -1    1.88    0.67
  10   2  -1    0.73    0.68
 -10   2  -3    8.64    1.90
 -10  -2  -3   12.42    2.36
 -10  -2  -4   57.26    5.46
 -10   2  -4   70.78    5.85
 -10  -2  -5    7.50    2.24
 -10   2  -5    7.36    2.09
 -11   2   5   28.42    3.54
 -11   2   4    2.60    1.01
 -11  -2   4    4.06    0.95
 -11  -2   3   12.80    1.54
 -11   2   3   10.04    1.69
 -11   2   2    0.24    0.45
 -11   2   2    0.31    0.72
 -11   2   1   90.07    5.26
  11   2   1   86.60    6.44
  11  -2   1   95.86    6.74
 -11  -2   1   85.66    4.11
 -11   2   0   34.27    2.95
  11  -2   0   29.37    3.61
  11   2   0   38.25    4.04
  11  -2  -1   88.40    6.31
  11   2  -1   81.33    6.09
 -11   2  -1   87.80    4.94
 -11   2  -4    4.85    1.63
 -11  -2  -4    0.98    0.92
 -12   2   5    7.15    1.81
 -12  -2   4    2.43    0.83
 -12   2   4    3.40    1.15
 -12   2   3   13.18    2.00
 -12  -2   3   12.56    1.62
 -12   2   2   14.00    2.20
 -12   2   2   11.23    1.79
 -12  -2   1    0.16    0.52
 -12   2   1   -0.28    0.45
 -12   2   1    0.25    0.46
 -12  -2   0  201.81    7.95
 -12   2   0  211.21    9.20
 -12   2  -1   -0.25    0.41
 -12   2  -2    9.69    1.66
 -13   2   4    5.41    1.47
 -13  -2   3   24.44    2.37
 -13   2   3   18.49    2.45
 -13   2   2   -0.28    0.59
 -13   2   1   28.29    3.05
 -13   2   1   31.74    3.00
 -13   2   0   21.73    2.56
 -13  -2   0   25.08    2.16
 -13   2  -1   32.34    3.05
 -13   2  -2    0.28    0.69
 -14  -2   3    6.64    1.32
 -14   2   2   67.58    4.85
 -14   2   1    0.99    0.75
 -14   2   1   -0.29    0.46
 -14   2   0   72.03    4.95
 -14  -2  -1    1.67    0.65
 -14   2  -1    0.30    0.63
 -14   2  -2   64.94    4.68
 -15   2  -1   70.11    5.06
   0  -3   6   -0.26    0.48
   0  -3   5  120.23    5.87
   0  -3   4    0.16    0.33
   0  -3   2   -0.08    0.22
   0  -3   1  477.31   13.74
   0  -3   1  440.44   13.47
   0  -3   0   -0.09    0.29
   0  -3   0    0.10    0.33
   0   3  -1  444.58   13.83
   0  -3  -1  454.48   15.32
   0   3  -1  461.00   13.80
   0   3  -2    0.08    0.11
   0  -3  -2    0.02    0.07
   0  -3  -3   30.81    3.02
   0  -3  -4    0.34    0.77
   0  -3  -5  115.68    7.04
   0  -3  -6    0.37    0.59
   0  -3  -7   60.75    4.85
  -1  -3   7   10.81    1.83
  -1  -3   6   20.88    2.22
   1  -3   5  168.43    7.67
  -1  -3   5  170.13    7.17
  -1  -3   4    1.51    0.46
   1  -3   2   43.26    2.39
  -1   3   1   51.17    3.19
   1  -3   1   53.95    2.44
  -1  -3   1   55.05    2.10
  -1  -3   1   50.68    2.24
  -1   3   0   63.53    3.21
  -1   3   0   63.68    2.39
   1  -3   0   74.57    2.63
   1  -3   0   69.00    3.10
   1  -3   0   70.04    2.46
   1  -3   0   71.36    2.90
  -1   3  -1   50.24    2.12
   1  -3  -1   44.43    2.62
  -1   3  -2   41.67    2.06
  -1  -3  -3   26.62    1.44
  -1   3  -3   25.10    1.64
   1  -3  -3   23.66    2.33
  -1  -3  -4    4.56    0.56
   1  -3  -4    2.61    0.92
   1   3  -5  170.43    5.28
  -1  -3  -5  174.30    9.69
   1  -3  -5  187.37    8.54
   1  -3  -6   23.74    2.65
  -1  -3  -6   21.48    3.15
   1   3  -6   20.48    0.92
  -1  -3  -7   10.74    2.22
   1  -3  -7   12.24    1.93
  -1   3  -7   15.13    1.67
   1  -3  -8    2.69    0.97
  -2  -3   8   20.55    2.66
  -2  -3   7   27.63    2.78
  -2  -3   6    2.78    0.82
  -2  -3   5  162.91    6.77
  -2   3   4    3.45    0.51
  -2  -3   4    3.37    0.64
  -2   3   3  111.63    3.70
  -2   3   2   46.18    3.37
  -2   3   1   27.67    2.10
  -2  -3   1   31.96    1.32
   2  -3   0    5.88    0.64
   2   3   0    4.43    0.59
  -2   3   0    6.32    0.63
   2  -3   0    5.49    0.72
  -2   3   0    6.02    0.83
   2  -3   0    5.94    0.67
   2  -3  -1   27.73    1.80
  -2   3  -1   30.99    1.88
  -2  -3  -1   31.36    1.89
  -2   3  -2   44.34    2.34
   2   3  -2   44.23    1.77
   2  -3  -3   98.22    5.03
  -2   3  -3  113.70    4.57
  -2  -3  -4    2.63    0.54
   2  -3  -4    3.11    0.87
  -2   3  -4    3.59    0.71
  -2  -3  -5  147.17    5.55
  -2   3  -5  153.53    6.10
   2  -3  -5  148.97    7.03
   2  -3  -6    1.90    0.73
  -2  -3  -7   29.88    3.92
   2  -3  -7   31.20    2.79
  -3  -3   8    0.31    0.71
  -3  -3   7   15.37    2.01
  -3   3   6   20.60    1.76
  -3  -3   6   26.62    2.31
  -3  -3   5   53.73    3.16
  -3   3   5   51.55    2.59
  -3   3   4    7.87    0.70
  -3   3   3   40.98    3.62
  -3   3   2   84.83    4.60
  -3   3   1   49.50    2.80
  -3   3   1   52.02    3.32
  -3  -3   1   51.74    1.88
   3  -3   0    6.35    0.87
   3   3   0    9.35    1.04
  -3   3   0    7.04    0.96
   3  -3  -1   48.63    2.49
  -3   3  -1   44.96    2.71
  -3  -3  -1   56.41    2.94
  -3   3  -1   52.40    2.66
  -3   3  -2   93.18    4.16
   3  -3  -2   92.33    4.86
   3  -3  -3   43.09    2.65
  -3   3  -3   37.83    2.43
   3  -3  -4    9.35    1.27
  -3   3  -4    9.16    1.13
  -3  -3  -4    7.70    1.04
  -3   3  -5   58.21    3.22
  -3  -3  -5   54.35    2.92
   3  -3  -5   48.02    3.32
   3  -3  -6   24.24    2.31
  -3  -3  -6   26.27    1.86
  -3   3  -6   28.59    2.26
   3  -3  -7   17.17    1.91
  -4  -3   8    7.33    1.53
  -4  -3   7   44.53    3.39
  -4  -3   6   27.54    2.33
  -4   3   6   24.34    1.83
  -4   3   5   61.61    2.80
  -4  -3   5   58.82    3.36
  -4   3   4   33.78    3.65
  -4   3   3    5.49    1.26
  -4  -3   3    4.28    0.48
  -4   3   2  207.99    8.34
  -4   3   1  105.52    4.54
  -4   3   1   97.53    4.99
  -4   3   0   66.51    3.09
   4  -3   0   63.35    3.46
   4   3   0   61.85    3.43
  -4   3   0   66.16    3.41
  -4   3  -1  110.73    4.60
  -4   3  -1  106.49    4.90
  -4  -3  -1   97.60    4.80
   4  -3  -1  103.28    4.58
  -4  -3  -2  209.51    8.62
  -4   3  -2  215.54    8.66
   4  -3  -2  209.68    8.28
   4  -3  -2  209.89    7.60
   4  -3  -3    2.81    0.90
  -4   3  -3    2.40    0.65
   4  -3  -3    2.54    0.64
  -4   3  -4   36.24    2.58
   4  -3  -4   40.40    2.64
  -4   3  -5   63.99    3.61
  -4  -3  -5   63.11    3.51
   4  -3  -5   57.87    3.49
  -4  -3  -6   22.90    1.91
  -4   3  -6   24.08    2.13
   4  -3  -6   21.70    2.03
   4  -3  -7   48.77    3.20
  -4  -3  -7   42.99    2.66
  -5   3   7   29.94    2.21
  -5  -3   7   21.42    2.29
  -5   3   6   31.37    2.04
  -5  -3   6   29.35    2.39
  -5   3   5   93.06    3.76
  -5   3   4    8.05    1.78
  -5  -3   3    2.82    0.42
  -5   3   3    2.81    0.89
  -5   3   2   54.15    3.36
   5  -3   1  276.82   10.46
  -5   3   1  270.94   10.39
  -5   3   1  272.79    9.66
   5  -3   0    0.56    0.46
   5   3   0    0.18    0.42
  -5   3   0    0.15    0.37
  -5   3  -1  283.02    9.87
   5  -3  -1  279.36    9.68
  -5   3  -1  276.66   10.47
  -5  -3  -1  268.60   10.37
   5  -3  -2   49.86    3.06
  -5   3  -2   51.18    3.56
  -5  -3  -2   46.88    3.46
  -5   3  -3    4.73    1.19
  -5   3  -3    2.21    0.71
  -5  -3  -3    3.43    1.07
   5  -3  -3    2.65    0.83
  -5   3  -4    9.04    1.31
   5  -3  -4    9.34    1.64
   5  -3  -4    8.92    1.15
   5  -3  -5  106.05    4.92
   5  -3  -5  105.82    6.29
  -5  -3  -5   99.32    5.13
  -5   3  -5  103.63    5.15
   5  -3  -6   27.07    2.22
  -5  -3  -6   27.98    2.28
   5  -3  -6   23.59    3.14
  -5  -3  -7   28.31    2.24
   5  -3  -7   32.40    3.81
   5  -3  -7   31.92    2.45
  -6  -3   7   11.34    1.60
  -6   3   7   10.11    1.26
  -6   3   6   11.89    1.19
  -6  -3   6   12.69    1.55
  -6  -3   4   84.57    3.75
  -6   3   4   86.52    5.81
  -6  -3   3  147.78    5.27
  -6   3   3  156.97    7.29
  -6   3   2   48.51    3.17
   6  -3   1   31.59    2.83
  -6   3   1   34.00    2.75
  -6   3   1   34.20    2.38
   6   3   0    0.22    0.46
  -6   3   0   -0.17    0.35
   6  -3   0   -0.23    0.42
  -6   3  -1   36.04    2.51
  -6   3  -2   43.93    3.45
  -6  -3  -2   45.89    3.54
   6  -3  -2   42.77    2.73
  -6   3  -3  148.69    6.89
  -6   3  -3  149.86    7.78
   6  -3  -3  149.73    6.62
  -6  -3  -3  159.20    7.97
  -6   3  -4   81.03    5.74
  -6   3  -4   88.74    4.83
  -6  -3  -4   84.08    5.96
   6  -3  -4   87.34    4.91
  -6  -3  -5   58.25    3.94
  -6   3  -5   66.96    4.01
   6  -3  -5   61.66    4.35
   6  -3  -6   13.33    2.15
   6   3  -6   14.96    1.12
  -6  -3  -6   16.25    1.91
   6  -3  -7    8.51    1.82
  -7   3   7   71.39    3.65
  -7  -3   7   76.37    4.44
  -7   3   6    9.86    1.07
  -7   3   5   27.85    3.67
  -7  -3   4   12.93    1.26
  -7   3   4   10.46    1.92
  -7  -3   3   88.94    3.74
  -7   3   3   95.40    5.28
  -7   3   2   86.06    4.60
   7  -3   1   55.77    4.16
  -7   3   1   58.17    3.40
   7   3   1   62.04    4.29
  -7   3   1   59.40    3.86
  -7   3   0   14.69    1.69
   7  -3   0   18.33    2.20
   7   3   0   13.45    1.88
  -7   3  -1   52.31    3.27
  -7   3  -2   76.19    5.02
  -7  -3  -2   77.46    5.08
   7  -3  -2   83.75    4.07
  -7   3  -3   84.38    5.64
  -7  -3  -3   92.16    5.87
   7  -3  -3   82.83    4.34
  -7  -3  -4   12.71    2.33
   7  -3  -4   10.70    1.51
  -7   3  -4   13.34    1.82
  -7   3  -4   10.84    2.07
  -7  -3  -5   32.23    3.83
  -7   3  -5   26.26    3.53
   7  -3  -5   23.86    2.44
  -7   3  -6    6.71    2.05
  -7  -3  -6    8.13    2.05
  -7  -3  -6   10.11    1.60
   7  -3  -6    7.04    1.40
  -8  -3   7   26.61    2.45
  -8   3   6   42.91    2.44
  -8   3   5   14.40    2.58
  -8  -3   5   15.05    1.73
  -8  -3   4  101.17    4.44
  -8   3   4   91.98    6.01
  -8  -3   3    6.31    0.85
  -8   3   3    8.30    1.46
  -8   3   2   41.93    3.73
  -8   3   2   42.85    3.08
  -8  -3   1  127.02    4.51
   8  -3   1  125.67    7.02
   8   3   1  131.84    7.09
  -8   3   1  126.74    5.84
  -8   3   1  128.75    6.46
  -8   3   0   71.06    4.15
   8  -3   0   59.66    4.52
   8   3   0   68.44    4.72
   8  -3  -1  124.47    6.65
   8   3  -1  115.78    6.40
  -8   3  -1  112.82    5.61
  -8   3  -2   43.05    3.74
  -8  -3  -2   44.39    3.80
  -8  -3  -3    4.69    1.39
  -8   3  -3    5.00    1.38
   8  -3  -3    6.32    1.01
   8  -3  -4  104.52    5.07
  -8   3  -4   97.02    5.72
  -8   3  -4  103.85    6.96
  -8  -3  -4  100.02    6.91
  -8  -3  -5   14.39    2.67
   8  -3  -5   11.90    1.61
  -8   3  -5   15.14    2.71
  -8  -3  -6   45.01    4.86
   8  -3  -6   41.70    3.30
  -8   3  -6   38.62    4.67
  -9   3   5   25.60    3.40
  -9  -3   4   10.92    1.27
  -9   3   4    8.14    1.72
  -9   3   3   14.06    1.97
  -9  -3   3   18.69    1.58
  -9   3   2   43.50    3.27
  -9   3   2   46.54    3.98
  -9   3   1  193.34    8.46
   9   3   1  190.68    9.35
   9  -3   1  187.51    9.35
  -9  -3   1  187.90    6.28
  -9   3   0   22.05    2.30
   9  -3   0   27.71    3.08
   9   3   0   23.89    2.83
  -9   3  -1  183.00    8.01
   9  -3  -1  190.12    9.35
   9   3  -1  193.94    9.32
  -9  -3  -3   19.67    2.76
  -9   3  -3   17.57    2.64
  -9  -3  -4    6.21    1.82
   9  -3  -4   10.04    1.30
  -9   3  -4    8.25    2.00
   9  -3  -5   26.82    2.29
  -9   3  -5   27.29    3.77
  -9  -3  -5   23.78    3.51
 -10   3   5   12.27    2.42
 -10  -3   4    7.15    1.11
 -10   3   4    8.79    1.89
 -10  -3   3   78.03    3.88
 -10   3   3   70.99    4.82
 -10   3   2   39.84    3.74
 -10   3   2   40.66    3.27
 -10   3   1    1.11    0.78
 -10   3   1    1.55    0.65
  10   3   1    0.39    0.81
  10  -3   1    0.79    0.73
 -10  -3   1    0.96    0.35
  10  -3   0    8.12    1.90
 -10   3   0   15.56    1.97
  10   3   0   12.76    2.24
 -10   3  -1    1.41    0.69
  10  -3  -1    1.51    0.93
  10   3  -1    1.46    0.84
 -10   3  -2   43.63    3.38
 -10   3  -3   72.18    5.60
 -10  -3  -3   71.48    5.60
 -10   3  -4    8.70    2.05
 -10  -3  -4    5.14    1.69
 -10  -3  -5   17.90    3.09
 -10   3  -5   11.86    2.62
  10  -3  -5   15.25    1.62
 -11   3   5   24.43    3.42
 -11  -3   4    4.68    0.94
 -11   3   4    5.83    1.56
 -11   3   3   76.70    5.30
 -11  -3   3   92.21    4.46
 -11   3   2   33.14    3.04
 -11   3   2   35.06    3.61
 -11   3   1    0.30    0.68
 -11  -3   1    1.25    0.46
  11  -3   1    0.87    0.70
  11   3   1    0.85    0.89
 -11   3   1    1.21    0.71
 -11   3   0    0.27    0.44
  11  -3   0    0.43    0.79
  11   3   0    0.83    0.94
 -11   3  -1    2.31    0.83
  11   3  -1    0.81    0.76
  11  -3  -1    1.67    1.03
 -11   3  -2   30.18    2.86
 -11  -3  -4    4.37    1.63
 -11   3  -4    4.29    1.54
 -12   3   5    7.97    2.06
 -12   3   4    8.43    1.90
 -12  -3   3    1.48    0.57
 -12   3   3    0.65    0.74
 -12   3   2    4.96    1.52
 -12   3   2    6.59    1.42
 -12   3   1   69.06    4.90
 -12   3   1   71.49    4.63
 -12  -3   1   66.96    3.42
 -12   3   0   34.75    3.31
 -12  -3   0   32.32    2.30
 -12   3  -1   70.09    4.71
 -12   3  -2    6.19    1.45
 -13   3   4   14.06    2.40
 -13   3   3    3.13    1.17
 -13  -3   3    3.04    0.89
 -13   3   2   28.71    3.04
 -13   3   1   32.27    3.09
 -13   3   1   25.85    3.07
 -13   3   0    0.64    0.78
 -13  -3   0    0.32    0.36
 -13   3  -1   31.23    3.20
 -13   3  -2   25.29    2.90
 -13   3  -3    2.90    1.13
 -14   3   1    3.69    1.38
 -14   3   0    0.34    0.63
 -14   3  -1    1.65    0.97
 -14   3  -2   12.80    2.08
 -15   3   0   10.58    2.00
   0  -4   7    0.33    0.53
   0  -4   6  106.72    5.98
   0  -4   5    0.22    0.45
   0  -4   3    0.13    0.27
   0  -4   2  254.40    8.59
   0  -4   1    0.15    0.23
   0  -4   1   -0.06    0.17
   0  -4   1    0.12    0.18
   0  -4   0 1910.33   55.94
   0  -4   0 1908.68   55.97
   0   4  -1    0.31    0.31
   0   4  -1   -0.11    0.36
   0  -4  -1   -0.19    0.40
   0   4  -2  268.13    8.78
   0   4  -2  262.14    8.41
   0  -4  -3    0.32    0.66
   0   4  -3   -0.04    0.11
   0   4  -4   14.12    0.71
   0  -4  -4   14.46    2.34
   0   4  -5   -0.06    0.16
   0  -4  -5    0.39    0.72
   0  -4  -6  104.53    6.92
   0  -4  -7    0.38    0.99
  -1  -4   7   16.43    2.30
  -1  -4   6   20.35    2.27
   1  -4   5   33.75    2.88
  -1  -4   5   24.96    2.29
   1  -4   3  114.35    5.02
  -1  -4   3  101.75    4.42
   1  -4   2  169.78    6.41
   1  -4   1  147.93    5.40
  -1  -4   1  150.36    5.22
  -1   4   1  140.84    6.79
  -1  -4   1  151.55    5.41
   1  -4   0   11.88    0.86
   1  -4   0   11.61    1.07
  -1  -4   0    9.97    1.36
   1  -4   0   13.31    1.25
   1  -4   0   11.82    0.69
  -1  -4   0   11.74    1.30
  -1   4  -1  142.50    5.35
   1   4  -1  161.54    5.74
   1  -4  -1  141.66    6.04
   1  -4  -1  146.83    6.59
   1   4  -2  166.00    5.87
  -1   4  -2  174.30    5.72
   1  -4  -3  109.37    5.81
  -1  -4  -3  103.89    3.76
   1  -4  -4    2.58    0.97
  -1  -4  -4    2.20    0.38
   1  -4  -5   25.35    2.89
  -1  -4  -5   28.82    3.72
  -1  -4  -6   17.32    2.93
   1  -4  -6   15.30    2.31
  -1   4  -7   16.18    1.33
  -1  -4  -7   18.97    3.07
   1  -4  -7   16.39    2.34
  -2  -4   7    1.99    0.88
  -2  -4   6    7.23    1.35
  -2  -4   5   11.74    1.48
   2  -4   3   26.53    2.24
  -2  -4   2  343.77   10.08
   2  -4   2  334.05   11.79
  -2   4   2  340.58   13.48
  -2  -4   1   25.03    1.38
  -2   4   1   21.88    2.09
   2  -4   0  238.96    8.08
  -2   4   0  240.31    7.65
  -2   4   0  226.76    8.87
   2  -4   0  247.46    7.86
   2   4   0  239.37    7.82
   2  -4   0  235.99    8.43
  -2   4  -1   26.75    1.62
  -2   4  -1   24.31    1.63
  -2  -4  -1   24.96    1.66
   2  -4  -1   29.19    2.29
   2  -4  -1   24.15    1.79
  -2   4  -1   24.07    1.50
  -2   4  -2  320.06   10.42
   2   4  -2  340.97   10.42
   2  -4  -3   24.70    2.29
  -2   4  -3   23.63    1.70
  -2  -4  -4  200.60    7.02
  -2   4  -4  200.19    7.49
   2  -4  -4  204.75    8.74
  -2  -4  -5   11.86    1.03
   2  -4  -5    7.95    1.48
   2  -4  -6   11.21    1.74
  -2  -4  -6   13.43    2.78
   2  -4  -7    2.63    0.88
  -3  -4   7   14.29    1.97
  -3  -4   6    4.66    1.05
  -3  -4   5   58.78    3.44
  -3   4   4    9.72    0.72
  -3  -4   4    9.53    1.15
  -3   4   3   26.02    1.06
  -3   4   3   23.46    2.96
  -3   4   2  225.18    9.63
  -3   4   1   82.81    4.84
  -3  -4   1   82.81    3.17
  -3   4   1   89.85    4.40
  -3   4   0    2.91    0.53
   3  -4   0    1.67    0.50
  -3   4   0    0.96    0.48
   3   4   0    1.91    0.50
   3  -4   0    2.50    0.55
  -3   4  -1   82.91    3.58
  -3   4  -1   86.57    3.76
  -3   4  -1   83.30    3.92
  -3   4  -1   79.62    3.95
  -3  -4  -1   83.47    3.91
   3  -4  -1   92.76    3.90
   3  -4  -2  202.66    8.65
   3   4  -3   27.09    1.34
  -3   4  -3   23.16    1.87
   3  -4  -3   26.67    2.21
   3  -4  -4   12.72    1.63
  -3  -4  -4   12.13    1.31
  -3   4  -4   11.56    1.31
  -3  -4  -5   56.84    3.01
  -3   4  -5   61.44    3.41
   3  -4  -5   65.28    4.00
   3  -4  -6    4.38    1.06
  -3  -4  -6    3.96    0.68
   3  -4  -7   17.73    2.09
  -4  -4   7    5.01    1.17
  -4  -4   6   96.44    5.04
  -4   4   5   28.73    1.61
  -4  -4   5   26.56    2.21
  -4   4   4    7.54    0.62
  -4   4   3    1.64    0.87
  -4   4   2   74.59    4.51
  -4   4   1    9.88    1.54
  -4  -4   1   12.60    0.92
  -4   4   1   11.86    1.39
  -4   4   0  408.81   13.89
   4  -4   0  396.09   13.49
   4   4   0  397.82   13.44
  -4   4  -1    9.97    1.19
  -4   4  -1    9.88    1.25
  -4   4  -1   10.97    1.09
  -4  -4  -1    9.80    1.24
  -4   4  -1    9.32    1.20
  -4  -4  -2   73.11    4.20
  -4   4  -2   73.55    4.19
   4  -4  -2   71.63    4.20
   4  -4  -3    1.31    0.69
  -4   4  -3    1.24    0.50
   4  -4  -3    1.41    0.58
   4  -4  -4    6.59    1.61
   4   4  -4    7.94    0.61
   4  -4  -4    5.35    1.03
  -4   4  -4    7.23    1.13
  -4  -4  -5   28.71    2.16
  -4   4  -5   26.49    2.21
   4  -4  -5   25.92    2.32
   4  -4  -6   87.41    4.84
  -4  -4  -6   95.64    4.32
   4  -4  -7    3.37    0.90
  -5  -4   7   13.62    1.83
  -5   4   6   11.15    1.10
  -5  -4   6   11.48    1.53
  -5   4   5   30.05    1.63
  -5   4   4    2.53    1.30
  -5   4   3   14.16    2.09
  -5  -4   3   11.64    0.76
  -5   4   2   58.40    3.83
  -5   4   1  219.98    9.27
  -5   4   1  219.38    8.49
   5   4   0    0.55    0.45
   5  -4   0    0.93    0.52
  -5   4  -1  217.09    8.61
  -5  -4  -1  219.38    8.66
  -5   4  -1  212.95    8.41
   5  -4  -1  221.73    8.30
   5  -4  -2   54.84    3.50
  -5   4  -2   60.21    3.88
  -5  -4  -2   55.77    3.81
  -5  -4  -3   14.33    1.99
  -5   4  -3   14.02    1.98
   5  -4  -3   13.25    1.42
   5  -4  -3   12.04    1.70
   5  -4  -4    2.29    0.96
   5  -4  -4    2.68    0.72
  -5   4  -4    1.67    0.67
   5  -4  -5   32.00    3.41
  -5  -4  -5   35.92    2.71
   5   4  -5   34.47    1.42
  -5   4  -5   33.20    2.64
   5  -4  -5   37.06    2.69
   5  -4  -6    9.62    1.39
   5  -4  -6   13.92    2.56
  -5  -4  -6   11.33    1.39
   5  -4  -7   17.09    1.89
  -6  -4   7    6.98    1.30
  -6   4   6    8.58    0.95
  -6  -4   6    6.40    1.16
  -6   4   5   18.79    1.26
  -6   4   4  186.35    9.66
  -6  -4   4  174.36    5.94
  -6   4   3    8.82    1.66
  -6   4   2  100.31    5.31
  -6   4   1   10.60    1.37
   6  -4   1   10.80    1.62
   6   4   0   10.33    1.52
   6  -4   0    9.90    1.50
  -6   4   0    8.02    1.10
  -6   4   0    6.79    1.21
   6  -4  -1   14.56    1.50
  -6   4  -1   13.92    1.62
  -6  -4  -2  100.39    5.59
  -6   4  -2   94.74    5.44
   6  -4  -2   95.44    4.78
   6  -4  -3   12.90    1.68
  -6  -4  -3   10.05    1.82
  -6   4  -3   12.28    1.94
  -6  -4  -4  187.63    9.44
  -6   4  -4  181.94    7.81
   6  -4  -4  180.33    8.27
  -6   4  -4  173.47    9.20
  -6   4  -5   18.80    2.02
   6  -4  -5   20.24    2.52
   6  -4  -6    9.57    1.90
  -6  -4  -6    8.45    1.32
  -7  -4   7    3.40    0.90
  -7   4   6    1.93    0.48
  -7   4   5    8.23    2.15
  -7  -4   4   30.25    1.79
  -7   4   4   28.20    3.37
  -7   4   3    9.65    1.68
  -7   4   2   33.93    2.85
  -7   4   1   21.20    2.03
   7  -4   1   25.47    2.63
  -7   4   1   23.12    2.47
  -7   4   0    3.53    0.79
   7  -4   0    4.24    1.14
   7   4   0    6.19    1.30
  -7   4   0    5.18    1.14
   7   4  -1   23.81    2.47
  -7   4  -1   22.08    2.15
  -7  -4  -2   33.42    3.13
  -7   4  -2   35.82    3.22
   7  -4  -2   35.95    2.58
  -7  -4  -3   11.22    1.99
  -7   4  -3    9.11    1.76
   7  -4  -3    8.68    1.36
  -7  -4  -4   25.72    3.21
  -7   4  -4   26.68    2.55
   7  -4  -4   27.16    2.57
  -7   4  -4   28.14    3.30
   7  -4  -5   10.83    1.76
  -7  -4  -5    7.09    1.91
   7  -4  -6    1.79    0.84
  -7  -4  -6    2.77    1.29
  -7  -4  -6    1.13    0.73
  -7   4  -6    1.02    1.26
  -8   4   6   31.20    1.90
  -8   4   5   12.67    2.61
  -8  -4   4   13.21    1.21
  -8   4   4    8.83    1.92
  -8   4   3   11.16    1.84
  -8   4   2   32.94    2.86
  -8   4   1    7.55    1.52
  -8   4   1    4.91    1.02
   8   4   1    3.71    1.19
   8  -4   1    4.01    1.19
  -8   4   0   66.59    4.42
  -8   4   0   74.72    4.13
   8  -4   0   75.41    5.08
   8   4   0   70.00    4.81
  -8   4  -1    4.89    1.10
   8   4  -1    4.85    1.28
   8  -4  -1    2.97    1.15
  -8  -4  -2   30.05    3.08
  -8   4  -2   32.30    2.75
  -8   4  -2   33.56    3.24
   8  -4  -3   12.34    1.53
  -8   4  -3    8.81    1.83
  -8  -4  -3   15.29    2.39
  -8   4  -4   17.38    2.68
   8  -4  -4   18.49    2.00
  -8  -4  -4   14.08    2.46
   8  -4  -5   12.65    1.78
  -8  -4  -5   13.12    2.53
  -8   4  -5    9.30    2.19
  -8   4  -6   29.57    4.07
   8  -4  -6   29.08    2.86
  -8  -4  -6   26.27    3.63
  -9   4   5   36.78    4.45
  -9  -4   4   10.53    1.20
  -9   4   4   11.60    2.21
  -9   4   3   27.42    2.94
  -9   4   2   17.96    2.17
  -9  -4   1   71.09    2.84
  -9   4   1   72.21    4.89
   9  -4   1   69.87    5.18
  -9   4   1   69.42    4.24
   9   4   1   64.63    5.00
  -9   4   0    0.27    0.43
  -9   4   0    0.21    0.38
   9  -4   0    0.35    0.64
   9   4   0   -0.34    0.54
   9   4  -1   80.38    5.35
  -9   4  -1   74.87    4.65
   9  -4  -1   72.14    5.24
  -9   4  -2   15.85    1.97
  -9  -4  -3   23.49    3.03
  -9   4  -3   24.77    3.06
  -9   4  -4    9.83    2.13
   9  -4  -4   10.19    1.46
  -9  -4  -4    9.60    2.09
   9  -4  -5   45.99    3.25
  -9  -4  -5   37.05    4.38
  -9   4  -5   40.25    4.54
 -10   4   6   69.39    6.80
 -10   4   5    7.59    2.07
 -10   4   4   87.12    6.09
 -10  -4   4   76.73    3.86
 -10   4   3    5.71    1.40
 -10   4   2    2.19    0.88
 -10   4   2    3.55    1.28
 -10   4   1    5.78    1.41
 -10  -4   1    4.06    0.58
 -10   4   1    3.39    0.99
  10   4   0    0.37    0.60
 -10   4   0    1.44    0.81
 -10   4   0    0.68    0.47
  10  -4   0    0.39    0.81
  10   4  -1    7.68    1.74
 -10   4  -1    5.62    1.23
  10  -4  -1    4.19    1.43
  10   4  -2    2.54    1.07
 -10   4  -2    2.61    0.91
 -10  -4  -3    4.41    1.41
 -10   4  -3    7.54    1.82
 -10  -4  -4   81.08    6.36
 -10   4  -4   88.74    6.53
 -10   4  -5    4.04    1.71
 -10  -4  -5    7.72    2.10
  10  -4  -5    7.49    1.25
 -11   4   5   16.46    3.03
 -11   4   4   12.30    2.38
 -11   4   3   31.95    3.32
 -11   4   2   17.06    2.28
 -11   4   1    0.26    0.43
 -11   4   1    0.68    0.64
 -11  -4   1    0.73    0.35
 -11   4   0   -0.31    0.41
 -11   4   0   -0.25    0.56
  11  -4   0   -0.43    0.56
  11   4   0   -0.41    0.76
  11   4  -1    0.40    0.65
 -11   4  -1    0.29    0.54
 -11   4  -2   19.86    2.41
 -11   4  -3   29.10    2.99
 -11  -4  -4    9.98    2.28
 -11   4  -4   10.75    2.32
 -12   4   4   34.96    3.95
 -12   4   3    4.29    1.38
 -12   4   2   44.63    3.90
 -12   4   1    0.57    0.60
 -12   4   1    2.55    1.07
 -12   4   0   26.94    3.04
 -12   4   0   23.77    2.61
 -12   4  -1    1.90    0.98
 -12   4  -2   39.81    3.63
 -12   4  -3    8.01    1.68
 -13   4   3   45.24    4.25
 -13   4   2    8.44    1.74
 -13   4   1   23.47    2.77
 -13   4   1   24.82    3.22
 -13   4   0    1.44    0.81
 -13   4   0    0.71    0.74
 -13   4  -1   26.97    3.11
 -13   4  -2    7.65    1.68
 -14   4   1    0.82    1.01
 -14   4   0   50.44    4.49
 -14   4  -1    1.83    1.08
 -15   4   0    8.43    1.92
   0  -5   7    8.25    1.77
   0  -5   6    0.28    0.53
   0  -5   3   45.34    2.72
   0  -5   2   -0.21    0.24
   0  -5   1  212.87    7.59
   0  -5   1  228.54    7.34
   0  -5   1  212.49    7.35
   0  -5   0    0.15    0.34
   0  -5   0    0.43    0.35
   0  -5   0   -0.05    0.14
   0   5  -1  224.94    8.50
   0  -5  -1  218.10    9.19
   0   5  -1  241.70    8.86
   0  -5  -2    0.28    0.52
   0   5  -2   -0.11    0.25
   0   5  -2    0.12    0.22
   0   5  -3   49.00    2.64
   0   5  -3   46.35    2.18
   0  -5  -4   -0.76    0.87
   0  -5  -5    2.04    1.08
   0  -5  -6   -0.41    0.86
  -1  -5   7   23.49    2.79
   1  -5   6   22.67    2.69
  -1  -5   6   21.64    2.47
  -1  -5   5   12.26    1.57
   1  -5   4    5.59    1.14
   1  -5   3   45.38    2.94
  -1  -5   3   43.18    2.60
   1  -5   2  110.49    4.81
  -1  -5   2  111.93    3.79
  -1  -5   2  119.08    4.54
  -1  -5   1  204.32    7.19
   1  -5   1  213.51    7.10
  -1  -5   1  212.17    7.47
   1  -5   1  206.20    7.47
   1  -5   1  207.92    7.26
   1  -5   0  127.98    4.43
  -1   5   0  118.51    5.73
  -1  -5   0  118.47    5.74
   1  -5   0  122.15    4.98
  -1  -5   0  117.16    5.39
   1  -5   0  113.56    5.17
   1  -5  -1  200.63    6.34
   1   5  -1  214.55    7.95
  -1   5  -1  208.74    6.73
   1  -5  -1  184.66    7.83
  -1   5  -1  206.86    7.56
   1  -5  -1  195.03    8.47
  -1  -5  -1  200.92    9.14
  -1   5  -1  198.29    7.74
  -1   5  -2  114.33    4.49
   1   5  -2  117.86    4.77
  -1   5  -2  118.88    4.98
  -1  -5  -2  116.50    6.91
   1  -5  -2  115.20    5.84
   1   5  -3   39.23    2.20
  -1   5  -3   39.60    1.94
  -1  -5  -3   39.11    1.74
  -1   5  -4    6.47    0.62
  -1  -5  -4    4.56    1.60
  -1  -5  -4    6.58    0.55
   1  -5  -4    5.25    1.36
  -1   5  -5   13.53    0.88
  -1  -5  -5   14.86    2.78
   1  -5  -5   14.67    2.29
  -1   5  -6   22.38    1.09
   1  -5  -6   24.75    2.91
  -1  -5  -6   26.57    3.60
  -1   5  -6   19.74    1.49
  -2  -5   7    9.27    1.71
  -2  -5   6    3.85    1.03
  -2  -5   5    9.08    1.32
   2  -5   4   11.96    1.74
   2  -5   3   54.71    3.56
  -2  -5   3   59.18    3.04
  -2  -5   2   29.50    1.43
  -2   5   2   29.11    3.20
   2  -5   2   32.18    2.32
  -2   5   1  126.06    6.67
   2  -5   1  136.96    5.58
  -2   5   1  142.86    4.41
  -2  -5   1  141.84    6.07
  -2  -5   1  139.94    5.18
   2  -5   0    0.07    0.18
   2   5   0    0.06    0.19
   2  -5   0   -0.11    0.20
  -2  -5   0    0.18    0.52
   2  -5   0    0.14    0.30
  -2   5   0    0.22    0.20
  -2   5  -1  153.82    5.70
   2  -5  -1  130.41    5.74
  -2   5  -1  142.46    5.11
  -2   5  -1  135.33    5.22
  -2  -5  -1  137.59    5.24
   2  -5  -1  151.57    6.57
  -2   5  -2   37.44    2.42
  -2   5  -2   29.77    1.86
   2   5  -2   34.59    2.07
   2   5  -3   56.63    2.65
  -2   5  -3   56.81    2.58
   2   5  -4   12.58    1.12
  -2  -5  -4   11.73    1.02
   2  -5  -4   12.33    1.78
  -2  -5  -5    8.26    0.80
   2  -5  -5    9.00    1.63
  -2  -5  -6    3.18    1.64
   2  -5  -6    3.79    1.12
  -2   5  -7   10.72    0.86
  -3  -5   7   33.10    3.12
  -3  -5   6    5.90    1.22
  -3  -5   5   85.78    4.51
  -3   5   3    8.32    1.95
  -3   5   2  123.69    7.03
  -3  -5   2  134.54    5.20
  -3   5   1  262.50   10.32
  -3   5   1  267.03    8.24
  -3  -5   1  250.88    8.61
   3  -5   0   29.58    2.14
  -3   5   0   27.94    1.63
  -3   5   0   28.52    2.44
   3  -5   0   28.89    1.88
   3   5   0   25.16    1.74
   3  -5   0   23.10    1.70
  -3   5  -1  262.11    9.05
   3  -5  -1  255.32    9.15
  -3   5  -1  259.33    9.02
  -3   5  -1  251.21    8.74
  -3  -5  -1  258.72    9.00
  -3   5  -2  139.89    6.06
  -3   5  -2  140.29    5.36
  -3   5  -2  133.77    5.47
   3  -5  -3   14.44    2.18
   3  -5  -3   11.45    1.51
   3   5  -3   11.63    0.97
   3  -5  -4    3.32    0.93
   3   5  -4    2.33    0.47
  -3   5  -4    3.51    0.74
   3  -5  -5   95.55    5.33
  -3  -5  -5   92.06    4.01
  -3   5  -5   96.11    4.59
   3  -5  -6    5.85    1.31
  -3  -5  -6    8.26    0.91
  -4  -5   7    7.98    1.50
  -4  -5   6   10.43    1.54
  -4  -5   5    3.56    0.82
  -4   5   4   15.06    0.78
  -4   5   3   14.43    2.36
  -4   5   2   69.65    4.70
  -4  -5   1  276.19    9.03
  -4   5   1  269.16   11.44
  -4   5   1  276.63   10.65
   4  -5   0   17.93    1.66
  -4   5   0   16.54    1.90
   4   5   0   18.23    1.65
   4  -5   0   17.52    1.65
  -4   5   0   18.64    1.48
  -4   5  -1  273.68    9.77
  -4  -5  -1  279.60    9.99
  -4   5  -1  270.23    9.98
   4  -5  -1  291.55    9.86
  -4   5  -1  278.89    9.76
  -4   5  -1  272.88   10.39
  -4   5  -2   74.77    3.80
  -4   5  -2   73.17    3.56
   4  -5  -2   78.61    4.63
  -4  -5  -2   83.45    4.42
  -4   5  -2   76.63    4.28
   4  -5  -3   11.15    1.80
   4  -5  -3   13.14    1.55
   4  -5  -4   18.39    2.50
   4  -5  -4   18.29    1.93
  -4   5  -4   14.47    1.60
   4   5  -4   15.65    0.99
   4  -5  -5    2.08    1.10
   4   5  -5    1.30    0.35
   4  -5  -5    1.32    0.61
  -4  -5  -5    1.86    0.58
  -4   5  -5    2.40    0.68
   4   5  -6    8.88    0.91
  -4  -5  -6    8.07    1.05
   4  -5  -6    9.66    1.55
  -5  -5   7   32.47    2.97
  -5  -5   6   15.95    1.87
  -5   5   5   27.34    1.41
  -5   5   4   14.53    2.70
  -5   5   3   92.17    6.23
  -5   5   2   13.19    1.88
  -5   5   1   68.48    3.98
  -5  -5   1   61.87    2.88
  -5   5   1   66.71    4.58
   5  -5   0   14.69    1.62
   5   5   0   11.75    1.50
  -5   5   0   13.08    1.73
  -5   5  -1   68.69    4.03
   5  -5  -1   63.19    3.73
  -5   5  -1   71.44    3.62
  -5   5  -1   67.55    3.68
   5  -5  -2   15.76    1.86
  -5   5  -2   16.05    1.88
  -5   5  -2   14.91    1.63
  -5  -5  -2   14.64    1.83
  -5  -5  -3   88.97    5.36
   5  -5  -3   84.78    4.44
  -5   5  -3   92.86    5.46
   5  -5  -3   93.46    5.35
   5  -5  -4   19.78    1.97
   5  -5  -4   21.68    2.64
  -5   5  -4   20.08    1.94
  -5  -5  -5   25.48    2.22
  -5   5  -5   26.36    2.27
   5  -5  -5   25.18    2.34
   5  -5  -5   24.58    3.06
   5  -5  -6   18.63    2.03
  -5  -5  -6   18.51    1.72
   5  -5  -6   21.14    3.07
  -6  -5   6   45.58    3.23
  -6   5   6   40.77    2.07
  -6   5   5    6.62    0.65
  -6   5   4   87.47    6.65
  -6   5   3   17.05    2.51
  -6   5   2   38.73    3.31
  -6   5   1   23.85    2.24
  -6   5   1   19.16    2.41
  -6   5   0   22.12    2.33
   6  -5   0   21.65    2.26
   6   5   0   18.61    2.09
  -6   5  -1   23.99    2.33
   6  -5  -1   23.32    2.05
   6   5  -1   23.52    2.25
  -6   5  -1   22.38    1.95
  -6   5  -2   36.79    2.78
  -6   5  -2   35.42    3.04
  -6  -5  -2   36.89    3.10
  -6   5  -2   35.45    2.88
   6  -5  -2   34.23    2.74
  -6   5  -3   13.30    2.04
  -6  -5  -3   12.62    1.98
   6  -5  -3   14.35    1.88
  -6  -5  -4   85.89    5.92
  -6   5  -4   86.96    4.76
  -6   5  -4   90.44    6.01
   6  -5  -4   97.10    5.64
   6  -5  -5    4.51    1.21
   6  -5  -5    7.13    1.22
  -6  -5  -5    8.07    1.89
  -6   5  -5    5.41    1.65
  -6  -5  -6   42.60    3.00
   6  -5  -6   42.28    4.07
  -7   5   6   11.55    0.99
  -7  -5   6   10.61    1.54
  -7   5   5  105.11    8.04
  -7   5   4    0.45    0.94
  -7  -5   4    0.35    0.22
  -7   5   3    0.68    0.55
  -7   5   2   94.01    5.48
  -7   5   1  165.71    7.39
  -7   5   1  160.15    8.23
  -7   5   0   34.07    3.06
   7  -5   0   31.65    2.95
   7   5   0   35.21    3.06
  -7   5  -1  178.85    7.90
   7  -5  -1  160.81    7.81
   7   5  -1  169.68    7.84
  -7   5  -1  165.45    7.08
   7  -5  -2   90.06    4.78
  -7   5  -2   91.11    5.07
  -7   5  -2   96.28    5.22
  -7  -5  -2   91.94    5.51
  -7   5  -2   91.78    5.51
  -7   5  -3   -0.32    0.67
  -7  -5  -3    1.30    0.74
   7  -5  -3    0.22    0.42
   7  -5  -4    0.51    0.63
  -7  -5  -4    0.76    0.87
  -7   5  -4    0.38    0.70
  -7   5  -5  101.10    7.06
  -7  -5  -5   88.49    6.58
   7  -5  -5  112.26    6.23
  -7   5  -6   12.64    2.59
  -7  -5  -6    9.45    1.54
  -7  -5  -6    5.41    1.70
  -8   5   5    7.93    2.25
  -8  -5   4   42.96    2.19
  -8   5   4   45.12    4.62
  -8   5   3   16.13    2.39
  -8   5   2   34.10    3.08
  -8   5   1   34.01    2.82
  -8   5   1   22.91    2.88
  -8   5   0    2.83    0.95
   8  -5   0    3.35    1.06
  -8   5   0    1.87    0.65
   8   5   0    2.36    1.07
  -8   5  -1   35.51    3.10
   8  -5  -1   27.38    2.94
   8   5  -1   31.44    3.06
  -8   5  -2   33.17    2.91
   8  -5  -2   35.48    2.69
   8  -5  -3   15.06    1.80
  -8   5  -3   12.29    1.76
  -8   5  -3   14.90    2.00
  -8   5  -3   11.74    2.07
  -8  -5  -3   16.77    2.42
   8  -5  -4   46.17    3.41
  -8   5  -4   35.33    3.88
  -8  -5  -4   40.93    4.13
   8  -5  -5    7.44    1.46
  -8   5  -5    9.14    2.10
  -8  -5  -5    8.24    2.06
  -8   5  -6    4.68    1.68
  -8  -5  -6    7.21    1.90
  -9   5   5   14.61    2.99
  -9  -5   4    3.51    0.66
  -9   5   4    5.26    1.58
  -9   5   3  110.67    6.75
  -9   5   2   10.39    1.75
  -9   5   1   37.18    3.16
  -9   5   1   42.68    3.98
  -9   5   0   35.33    2.93
  -9   5   0   33.64    3.28
   9  -5   0   34.51    3.48
   9   5   0   35.20    3.47
   9  -5  -1   40.04    3.78
   9   5  -1   34.51    3.44
  -9   5  -1   40.28    3.43
  -9   5  -2    9.87    1.67
   9  -5  -3  125.46    5.95
  -9   5  -3  124.78    6.63
  -9  -5  -3  121.16    7.35
  -9   5  -3  116.14    7.17
   9  -5  -4    6.76    1.21
  -9  -5  -4    5.56    1.65
  -9   5  -4    5.46    1.67
  -9   5  -5   19.04    3.15
  -9  -5  -5   21.14    3.21
   9  -5  -5   17.71    2.16
 -10   5   5   19.69    3.36
 -10   5   4   22.25    3.19
 -10   5   3   42.82    4.00
 -10   5   2   18.43    2.47
 -10  -5   1    5.84    0.63
 -10   5   1    7.74    1.72
 -10   5   1    5.66    1.27
 -10   5   0   86.55    4.99
  10  -5   0   81.16    5.88
 -10   5   0   83.65    5.56
  10   5   0   75.24    5.63
  10  -5  -1    7.66    1.79
  10   5  -1    4.00    1.36
 -10   5  -1    7.00    1.51
 -10   5  -2   20.62    2.46
  10  -5  -2   22.11    2.96
  10   5  -2   18.62    2.72
 -10   5  -3   40.69    3.56
 -10  -5  -3   41.07    4.07
 -10   5  -4   22.84    3.19
 -10  -5  -4   19.21    2.96
  10  -5  -4   18.23    2.02
  10  -5  -5   19.48    2.14
 -10   5  -5   22.79    3.41
 -10  -5  -5   18.05    3.04
 -11   5   5   68.75    6.45
 -11   5   4    8.68    2.05
 -11   5   3    9.87    2.08
 -11   5   2   60.05    4.61
 -11   5   1   49.46    3.91
 -11   5   1   46.83    4.40
 -11  -5   1   46.76    2.19
 -11   5   0    1.40    0.98
  11  -5   0    0.42    0.88
  11   5   0   -0.41    1.07
 -11   5   0    0.80    0.61
 -11   5  -1   48.94    4.11
  11   5  -1   49.49    4.59
 -11   5  -2   65.89    4.78
 -11   5  -3    7.06    1.62
 -11   5  -4    3.65    1.41
 -11  -5  -4    3.25    1.50
 -12   5   3   12.40    2.38
 -12   5   2   18.83    2.59
 -12   5   1    5.62    1.35
 -12   5   1    8.23    1.93
 -12   5   0    0.57    0.54
 -12   5   0    1.50    0.98
 -12   5  -1    7.43    1.63
 -12   5  -2   15.38    2.40
 -12   5  -3   10.00    1.92
 -13   5   1    6.03    1.47
 -13   5   1    4.78    1.68
 -13   5   0    4.64    1.33
 -13   5   0    4.76    1.57
 -13   5  -1    4.16    1.41
 -13   5  -2    7.74    1.83
 -14   5   1   12.79    2.58
 -14   5   0   45.41    4.49
   0  -6   7   -0.36    0.75
   0  -6   6   11.94    1.87
   0  -6   4   85.54    4.58
   0  -6   3   -0.15    0.32
   0  -6   2   91.29    4.10
   0  -6   1   -0.10    0.27
   0  -6   1    0.24    0.25
   0  -6   1    0.09    0.19
   0  -6   0  116.11    4.20
   0  -6   0  108.85    5.32
   0   6  -1    0.39    0.41
   0   6  -1    0.45    0.56
   0  -6  -1    0.23    0.47
   0  -6  -1   -0.04    0.11
   0  -6  -1   -0.26    0.41
   0  -6  -2   91.05    2.83
   0   6  -2   92.59    4.46
   0   6  -2   92.71    4.58
   0  -6  -2   88.25    5.48
   0   6  -3    0.57    0.42
   0   6  -3    0.12    0.29
   0   6  -4   94.88    4.49
   0  -6  -4   99.46    6.62
   0  -6  -5   -0.42    0.97
   0  -6  -6    8.17    1.98
  -1  -6   7   21.07    2.71
   1  -6   6   37.44    3.57
  -1  -6   6   42.06    3.51
   1  -6   4  189.38    8.15
  -1  -6   4  187.19    7.68
   1  -6   3  166.20    7.15
  -1  -6   3  172.78    6.77
  -1  -6   2   31.60    1.60
   1  -6   2   33.11    2.26
  -1  -6   2   31.62    2.01
  -1  -6   1   18.28    1.54
   1  -6   1   17.52    1.51
   1  -6   1   17.73    1.34
   1  -6   1   17.07    1.41
  -1  -6   1   15.94    1.43
   1  -6   0   15.09    1.50
  -1   6   0   16.29    2.07
   1  -6   0   17.70    1.25
  -1  -6   0   20.37    1.95
  -1  -6   0   18.23    2.00
   1  -6   0   15.89    1.68
  -1  -6  -1   20.45    2.43
   1  -6  -1   20.08    1.13
  -1   6  -1   21.24    2.02
  -1   6  -1   20.58    1.18
   1  -6  -1   20.22    2.18
   1  -6  -1   18.61    1.89
  -1   6  -1   18.82    1.91
  -1  -6  -1   18.05    1.17
  -1   6  -2   32.18    2.41
   1  -6  -2   32.18    2.80
   1  -6  -2   37.03    3.45
  -1  -6  -2   38.34    3.72
   1   6  -2   33.91    2.36
  -1   6  -2   25.66    2.02
  -1   6  -3  177.63    6.36
  -1   6  -3  166.64    6.89
   1   6  -3  169.35    6.62
   1   6  -4  205.29    7.43
  -1   6  -4  196.55    6.64
  -1   6  -4  193.35    7.68
  -1  -6  -4  190.36    5.88
  -1  -6  -4  186.60   10.51
   1  -6  -4  187.68    9.29
  -1   6  -5   74.47    2.86
   1   6  -5   66.95    3.59
  -1  -6  -5   73.62    6.18
   1  -6  -5   71.60    5.28
   1  -6  -6   38.61    3.82
  -2  -6   7    4.42    1.25
  -2  -6   6   73.86    4.71
   2  -6   4  218.01    9.26
  -2  -6   4  209.03    8.26
   2  -6   3   31.19    2.62
  -2  -6   3   34.05    2.24
   2  -6   2   50.68    3.12
  -2  -6   2   48.56    2.24
  -2   6   2   46.80    4.44
  -2  -6   1   25.05    1.77
   2  -6   1   22.89    1.84
  -2  -6   1   28.68    2.28
   2  -6   0   25.30    2.09
   2  -6   0   21.14    1.71
  -2  -6   0   19.21    2.36
  -2  -6   0   22.59    2.12
  -2   6   0   21.36    2.20
  -2   6  -1   22.93    2.00
   2  -6  -1   23.11    1.99
  -2   6  -1   23.69    1.52
  -2  -6  -1   23.45    1.51
  -2   6  -1   25.30    1.53
   2  -6  -1   25.70    2.43
  -2   6  -1   21.82    2.12
   2   6  -2   45.19    2.86
   2  -6  -2   43.29    3.14
   2  -6  -2   50.48    3.95
  -2   6  -2   46.35    3.06
  -2   6  -2   51.31    2.58
  -2   6  -2   46.79    2.69
  -2   6  -3   34.67    2.54
  -2   6  -3   32.52    2.03
   2   6  -3   35.73    2.23
   2   6  -4  215.64    7.73
   2  -6  -4  198.19    9.35
  -2   6  -4  216.14    7.40
  -2  -6  -4  216.26    7.12
  -2   6  -5    6.85    0.78
   2   6  -5    6.12    0.91
  -2  -6  -5    4.27    1.73
  -2  -6  -5    7.06    0.66
   2  -6  -5    7.27    1.58
   2  -6  -6   83.97    5.47
   2   6  -6   81.26    3.96
  -2   6  -6   79.54    3.20
  -3  -6   7   28.92    2.98
  -3  -6   6   26.34    2.58
  -3   6   3   79.50    6.40
  -3   6   2   20.37    2.79
  -3  -6   2   19.26    1.55
  -3  -6   1    2.47    0.54
  -3   6   1    1.39    0.27
   3  -6   0   44.92    2.49
   3  -6   0   51.26    3.13
  -3   6   0   52.71    3.44
   3   6   0   45.58    2.47
   3  -6   0   49.61    2.77
  -3   6   0   48.47    2.27
  -3   6   0   49.15    3.67
   3  -6  -1    1.37    0.53
   3  -6  -1    0.63    0.56
  -3  -6  -1    1.44    0.45
  -3   6  -1    2.05    0.61
  -3   6  -1    1.56    0.42
  -3   6  -2   18.95    1.91
  -3  -6  -2   18.10    1.82
   3  -6  -2   21.11    1.99
  -3   6  -2   20.06    1.67
  -3   6  -2   21.05    1.63
  -3   6  -2   23.25    1.98
  -3   6  -3   85.54    4.49
  -3   6  -3   83.15    3.76
   3  -6  -3   82.42    5.58
   3   6  -3   77.10    3.64
   3  -6  -4  106.00    5.91
  -3   6  -4  121.54    4.78
   3  -6  -4  110.05    7.31
   3   6  -4  120.68    4.70
   3   6  -5   58.72    2.94
   3  -6  -5   58.71    4.18
  -3   6  -5   63.51    2.98
  -3  -6  -5   62.12    2.87
   3   6  -6   23.78    1.77
  -3   6  -6   25.43    1.67
   3  -6  -6   21.67    2.56
   3   6  -7   32.38    2.20
  -4  -6   6    2.57    0.85
  -4  -6   5   21.05    2.04
  -4   6   3   37.35    4.20
  -4   6   2   59.42    4.68
  -4   6   1   20.54    1.32
  -4   6   1   16.93    2.48
  -4  -6   1   18.70    1.46
  -4   6   1   16.97    2.13
   4   6   0   10.65    1.25
   4  -6   0   13.18    1.49
  -4   6   0   11.35    1.75
  -4   6   0   11.63    1.10
   4  -6   0   12.44    1.35
   4  -6  -1   23.23    1.90
  -4   6  -1   22.00    1.67
  -4   6  -2   70.02    3.59
  -4   6  -2   66.41    3.47
  -4   6  -2   67.29    3.91
  -4  -6  -2   65.16    3.87
   4  -6  -2   64.85    4.33
  -4   6  -3   28.27    2.43
   4  -6  -3   26.88    2.37
  -4  -6  -3   32.92    2.85
  -4   6  -3   26.22    2.59
  -4   6  -3   26.63    1.95
  -4   6  -3   23.51    2.00
   4  -6  -3   33.05    3.21
  -4   6  -4   70.80    3.40
   4   6  -4   66.48    2.81
   4  -6  -4   58.02    4.80
   4  -6  -4   59.98    3.98
   4  -6  -5   25.43    2.55
   4  -6  -5   23.89    3.29
  -4  -6  -5   22.23    1.79
  -4   6  -5   22.39    2.05
   4   6  -5   22.28    1.43
   4   6  -6    2.91    0.55
  -5  -6   6    7.76    1.38
  -5  -6   5   34.95    2.70
  -5   6   4   75.00    6.58
  -5  -6   3   36.37    1.99
  -5   6   3   42.17    4.28
  -5   6   2   27.08    3.00
  -5   6   1   51.35    4.20
  -5   6   1   45.56    2.51
  -5   6   1   52.29    3.70
  -5  -6   1   43.16    2.40
  -5   6   0   40.67    2.50
   5  -6   0   40.68    2.85
  -5   6   0   39.84    3.37
   5   6   0   40.80    2.84
  -5   6  -1   54.30    3.24
   5   6  -1   50.42    3.15
  -5   6  -1   42.15    2.77
  -5   6  -1   48.33    3.54
  -5   6  -2   36.38    2.52
  -5   6  -2   37.11    2.56
  -5   6  -2   37.37    2.93
  -5  -6  -2   31.86    2.73
   5  -6  -2   37.79    3.09
  -5  -6  -3   38.19    3.29
  -5   6  -3   38.41    3.27
   5  -6  -3   33.72    2.66
  -5   6  -3   40.70    2.60
  -5   6  -3   38.96    2.73
  -5   6  -3   42.56    3.15
   5  -6  -3   30.95    3.11
   5  -6  -4   77.44    5.33
  -5   6  -4   73.16    5.15
  -5  -6  -4   66.39    4.95
   5  -6  -4   74.70    4.31
  -5  -6  -5   33.79    2.52
   5  -6  -5   30.46    3.56
  -6  -6   6    8.06    1.37
  -6   6   5    2.14    0.27
  -6   6   4   97.28    7.47
  -6   6   3    9.46    2.01
  -6   6   2   16.68    2.28
  -6   6   1   21.46    2.69
  -6  -6   1   20.73    1.51
  -6   6   1   15.81    2.01
   6   6   0   -0.22    0.45
  -6   6   0    0.29    0.53
   6  -6   0   -0.22    0.46
   6  -6  -1   20.06    2.18
  -6   6  -1   24.20    2.12
  -6   6  -1   18.07    1.84
   6   6  -1   17.00    1.94
   6  -6  -1   19.80    2.00
  -6   6  -1   18.80    2.23
   6  -6  -2   21.98    2.27
  -6   6  -2   20.18    2.20
  -6   6  -2   20.55    2.01
  -6   6  -2   20.06    1.89
  -6  -6  -2   20.09    2.24
  -6   6  -2   19.29    2.17
  -6   6  -3    7.52    1.60
  -6  -6  -3    7.08    1.51
  -6   6  -3    5.64    1.08
   6  -6  -3    4.78    1.17
   6  -6  -4   92.54    4.81
   6  -6  -4   81.61    5.39
  -6  -6  -4   87.89    5.90
  -6   6  -4   79.84    5.62
   6  -6  -5    4.47    1.40
   6  -6  -5    4.12    0.99
  -6   6  -5    2.88    1.49
  -6  -6  -5    3.15    1.16
  -6   6  -6    9.21    2.23
  -7  -6   6   38.04    3.04
  -7   6   5    5.08    2.06
  -7   6   5    6.61    0.58
  -7   6   4   56.64    5.51
  -7   6   3   21.47    2.95
  -7   6   2   16.87    2.28
  -7   6   1   14.80    1.96
  -7   6   1   11.87    2.08
  -7  -6   1   17.12    1.42
   7  -6   0   98.66    5.64
  -7   6   0   99.50    6.00
   7   6   0   99.37    5.57
  -7   6  -1   15.60    2.10
  -7   6  -1   14.89    1.84
  -7   6  -1   17.17    1.87
   7  -6  -1   14.44    2.00
   7   6  -1   13.37    1.87
  -7   6  -2   29.43    2.76
   7  -6  -2   24.68    2.36
  -7  -6  -2   21.87    2.49
  -7   6  -2   23.77    2.34
  -7   6  -2   23.43    2.16
   7  -6  -3   15.40    2.03
  -7  -6  -3   14.97    2.23
  -7   6  -3   19.50    2.09
  -7   6  -3   15.08    2.22
   7  -6  -4   54.07    4.16
  -7   6  -4   61.18    4.89
  -7  -6  -4   62.30    4.93
  -7   6  -5    9.00    2.01
   7  -6  -5    7.21    1.59
  -7  -6  -5    6.32    1.85
  -7   6  -6   34.32    4.26
  -7  -6  -6   36.57    4.12
  -8   6   5    1.90    1.44
  -8  -6   4   31.82    1.59
  -8   6   4   29.70    3.94
  -8   6   3   81.32    5.94
  -8   6   2    2.23    0.94
  -8   6   1   27.42    2.78
  -8   6   1   26.47    3.24
  -8   6   0  144.97    7.89
   8  -6   0  157.80    7.89
   8   6   0  153.71    7.75
  -8   6  -1   25.16    2.39
   8  -6  -1   23.64    2.74
   8   6  -1   24.58    2.72
  -8   6  -1   26.69    2.84
  -8   6  -2    2.70    0.85
  -8   6  -2    3.07    0.98
   8  -6  -2    2.56    0.82
   8  -6  -3   74.60    4.69
  -8   6  -3   86.80    5.28
  -8   6  -3   84.35    4.97
  -8   6  -3   81.46    5.59
  -8  -6  -3   95.31    5.92
   8  -6  -4   34.53    3.11
  -8   6  -4   36.63    3.81
  -8  -6  -4   33.67    3.73
  -8   6  -5    0.45    0.72
  -8  -6  -5    1.34    1.10
  -8  -6  -6    8.43    2.10
  -8   6  -6    6.15    1.92
  -9   6   5    9.99    2.55
  -9   6   4    9.00    2.25
  -9   6   3   15.62    2.54
  -9   6   2   20.18    2.60
  -9   6   1   35.86    3.24
  -9   6   1   35.86    3.77
   9  -6   0   56.30    4.54
   9   6   0   47.39    4.08
  -9   6   0   52.80    4.40
  -9   6  -1   27.81    2.65
   9  -6  -1   36.41    3.61
   9   6  -1   32.97    3.30
  -9   6  -1   35.83    3.43
  -9   6  -2   22.10    2.68
   9   6  -2   19.80    2.61
  -9   6  -2   23.47    2.54
   9  -6  -2   17.42    2.49
  -9   6  -2   20.31    2.18
  -9   6  -3   12.90    2.00
   9  -6  -3    9.89    1.56
  -9   6  -3    9.66    1.91
  -9  -6  -3   12.35    2.16
   9  -6  -4   13.38    1.89
  -9   6  -4   12.05    1.99
  -9   6  -4   10.68    2.19
  -9  -6  -4   12.98    2.36
  -9   6  -5   10.73    2.40
  -9  -6  -5    8.87    2.19
 -10   6   5    3.74    1.74
 -10   6   4   52.92    5.31
 -10   6   3   14.00    2.52
 -10   6   2   37.13    3.62
 -10   6   1   12.10    1.96
 -10   6   1    5.46    1.63
 -10   6   0    5.49    1.29
 -10   6   0    4.48    1.40
  10  -6   0    4.19    1.43
  10   6   0    6.95    1.81
  10  -6  -1    8.79    1.91
 -10   6  -1   12.14    2.07
  10   6  -1   13.72    2.35
  10   6  -2   28.41    3.29
 -10   6  -2   25.90    2.63
  10  -6  -2   22.28    3.00
 -10   6  -2   29.12    3.15
 -10   6  -3   19.45    2.55
 -10   6  -4   46.19    4.07
 -10   6  -4   49.79    4.72
 -10  -6  -4   41.00    4.41
 -10   6  -5    2.42    1.28
 -10  -6  -5    2.44    1.51
 -11   6   4   18.43    3.06
 -11   6   3    3.86    1.39
 -11   6   2    9.45    1.99
 -11   6   1   26.76    3.01
 -11   6   1   26.50    3.52
  11   6   0   40.18    4.17
 -11   6   0   38.37    3.43
 -11   6   0   42.06    4.12
 -11   6  -1   26.23    3.18
 -11   6  -2    7.56    1.52
 -11   6  -2    7.40    1.75
 -11   6  -3    5.94    1.50
 -11  -6  -4   18.03    2.95
 -12   6   2    7.75    1.82
 -12   6   1    3.44    1.11
 -12   6   1    2.32    1.30
 -12   6   0  154.86    8.00
 -12   6   0  153.15    8.88
 -12   6  -1    1.96    1.03
 -12   6  -2    7.31    1.48
 -12   6  -2    6.05    1.59
 -13   6   1   60.72   36.11
 -13   6   0   21.24    3.11
 -13   6  -1   68.97    5.55
   0  -7   5   21.37    2.39
   0  -7   4   -0.21    0.39
   0  -7   3   19.26    1.86
   0  -7   2    0.13    0.28
   0  -7   1  209.37    8.00
   0  -7   1  212.47    7.80
   0  -7   1  222.21    7.65
   0  -7   0   -0.20    0.26
   0  -7   0   -0.08    0.19
   0  -7   0    0.36    0.42
   0  -7  -1  212.11    6.80
   0   7  -1  209.27    9.25
   0  -7  -1  204.23    9.33
   0  -7  -1  221.47    9.27
   0   7  -2    0.20    0.41
   0  -7  -2    0.13    0.10
   0  -7  -2   -0.30    0.63
   0  -7  -3   17.72    2.59
   0   7  -3   18.10    1.82
   0   7  -4   -0.17    0.40
   0  -7  -4   -0.41    0.84
   0   7  -5   22.38    2.06
   0  -7  -5   23.91    3.23
   0   7  -6   -0.19    0.48
   0   7  -7   41.68    3.12
  -1  -7   6   16.43    2.27
   1  -7   5   58.62    4.29
   1  -7   4    3.32    0.97
  -1  -7   4    2.53    0.71
   1  -7   3   45.91    3.13
  -1  -7   3   40.80    2.73
  -1  -7   2    2.81    0.48
   1  -7   2    3.43    0.76
  -1  -7   2    3.53    0.69
  -1  -7   1   50.62    2.98
   1  -7   1   53.44    3.06
   1  -7   1   49.97    2.73
   1  -7   1   51.87    2.84
  -1  -7   1   52.20    2.96
  -1  -7   1   52.05    2.59
   1  -7   0   74.43    3.81
  -1  -7   0   74.16    4.19
   1  -7   0   70.47    3.18
  -1   7   0   68.47    4.94
  -1  -7   0   68.18    4.21
   1  -7   0   64.04    3.91
  -1  -7  -1   49.87    3.94
   1  -7  -1   49.06    2.20
  -1  -7  -1   46.46    3.83
  -1  -7  -1   47.87    1.98
  -1   7  -1   49.32    3.60
   1  -7  -1   48.68    3.33
  -1   7  -1   51.56    3.69
   1  -7  -1   45.81    3.57
   1   7  -2    1.60    0.65
  -1   7  -2    2.64    0.78
   1  -7  -2    2.69    1.09
  -1  -7  -2    1.85    1.09
  -1   7  -2    2.71    0.79
   1  -7  -2    5.12    1.19
  -1   7  -3   43.26    3.03
   1   7  -3   50.44    3.06
  -1  -7  -3   35.46    4.06
  -1   7  -3   42.62    2.75
   1   7  -4    1.78    0.61
  -1   7  -4    4.14    0.91
  -1   7  -4    3.40    0.70
   1  -7  -4    4.13    1.36
   1  -7  -5   67.41    5.20
   1   7  -5   67.95    3.67
  -1   7  -5   61.44    3.79
  -1   7  -5   62.43    2.74
  -1  -7  -5   73.11    6.12
   1   7  -6   20.45    1.94
  -1   7  -6   20.24    2.13
  -1   7  -7   72.82    4.47
   1   7  -7   69.10    4.04
  -1   7  -8    7.12    1.39
  -2  -7   6    1.65    0.81
   2  -7   4   16.86    2.14
  -2  -7   4   13.65    1.61
   2  -7   3   16.28    1.92
  -2  -7   3   17.36    1.63
  -2  -7   2    8.17    0.87
   2  -7   2    9.74    1.37
   2  -7   1   22.81    1.94
   2  -7   1   28.51    2.10
  -2  -7   1   24.97    1.92
  -2  -7   1   21.29    2.05
   2  -7   0   10.42    1.40
   2  -7   0   13.34    1.39
  -2   7   0   13.83    1.97
  -2  -7   0   16.99    2.15
  -2  -7   0   13.31    1.68
   2  -7  -1   22.91    2.11
  -2  -7  -1   23.80    1.43
  -2  -7  -1   23.24    2.95
   2  -7  -1   24.06    2.46
  -2   7  -1   27.76    2.61
  -2   7  -1   23.30    2.30
  -2   7  -2    8.93    1.11
   2  -7  -2    9.73    1.75
  -2  -7  -2    8.02    1.92
  -2   7  -2    8.13    1.31
  -2   7  -2    9.10    1.26
   2  -7  -2    6.62    1.26
  -2   7  -3   20.92    2.05
  -2   7  -3   16.31    1.56
  -2  -7  -3   15.50    2.83
   2   7  -3   14.44    1.57
  -2   7  -4   10.72    1.15
  -2   7  -4    9.36    1.43
  -2  -7  -4   11.88    0.88
   2  -7  -4   12.76    2.00
   2   7  -4   13.06    1.40
   2   7  -5   44.51    2.77
  -2   7  -5   43.31    2.38
   2  -7  -5   47.10    4.00
  -2   7  -5   44.78    3.27
  -2  -7  -5   49.70    5.24
   2   7  -6    1.71    0.56
  -2   7  -6    1.58    0.39
   2   7  -7   47.80    3.06
  -3  -7   6   29.12    2.87
  -3  -7   4    3.55    0.82
  -3  -7   2   47.57    2.71
  -3   7   2   61.37    5.26
  -3  -7   1   85.57    3.98
  -3  -7   1   82.23    4.89
  -3  -7   0   -0.22    0.54
   3  -7   0    0.19    0.30
   3  -7   0    0.28    0.30
  -3   7   0    0.77    0.63
  -3   7   0    0.86    0.29
  -3   7  -1   83.35    4.60
   3  -7  -1   81.96    4.28
   3   7  -1   84.63    3.64
  -3   7  -1   83.32    3.58
   3  -7  -1   80.59    4.78
  -3   7  -2   49.04    3.10
   3  -7  -2   53.55    3.47
  -3   7  -2   47.29    2.68
  -3   7  -2   51.98    3.07
  -3  -7  -2   50.61    3.07
  -3   7  -2   49.32    3.51
  -3   7  -3   70.14    4.30
  -3   7  -3   75.83    3.80
  -3   7  -3   76.44    3.76
  -3   7  -4    4.15    0.77
   3  -7  -4    3.78    1.36
   3   7  -4    4.35    0.79
  -3   7  -4    4.19    1.01
   3  -7  -4    3.69    1.08
   3  -7  -5    7.46    2.03
   3   7  -5    8.67    1.08
  -3   7  -5    9.41    1.08
  -3   7  -5    8.02    1.39
  -3  -7  -5    9.24    0.87
   3  -7  -5    8.89    1.64
   3   7  -6   33.02    2.21
  -3   7  -6   28.68    1.91
  -4  -7   6    5.56    1.21
  -4  -7   3   26.57    1.09
  -4   7   3   24.25    3.68
  -4  -7   2   60.15    3.61
  -4   7   2   62.53    5.23
  -4   7   1   21.92    1.29
  -4  -7   1   21.50    1.69
  -4   7   0  125.84    6.49
   4  -7   0  121.90    5.81
   4  -7   0  133.02    5.44
  -4   7   0  131.96    4.91
  -4  -7   0  118.82    6.23
  -4   7   0  124.37    6.95
   4  -7  -1   22.89    2.31
  -4   7  -1   20.00    2.04
   4  -7  -1   23.45    1.90
   4   7  -1   20.76    1.74
   4  -7  -1   23.15    1.98
  -4   7  -1   20.55    1.60
  -4   7  -2   64.93    4.25
  -4   7  -2   61.92    3.67
   4  -7  -2   65.56    3.87
  -4   7  -2   66.35    3.40
  -4   7  -2   64.70    3.75
  -4  -7  -2   67.14    3.86
  -4   7  -3   29.14    2.64
  -4  -7  -3   20.50    2.34
  -4   7  -3   27.28    2.10
   4  -7  -3   27.70    3.03
  -4   7  -3   25.49    2.47
  -4   7  -3   25.89    2.05
  -4   7  -4   18.34    2.12
   4  -7  -4   11.49    2.16
   4  -7  -4   18.60    2.15
  -4   7  -4   17.67    1.62
   4   7  -5    7.97    0.92
   4  -7  -5   10.92    1.71
  -4   7  -5    9.45    1.16
  -4   7  -5   10.46    1.65
  -4  -7  -5    8.11    1.04
  -4   7  -6    6.36    0.96
   4   7  -6    7.28    0.87
  -5  -7   6   26.68    2.64
  -5   7   3    5.00    1.75
  -5  -7   3    4.27    0.58
  -5   7   2   24.74    1.34
  -5   7   2   25.56    3.12
  -5   7   1  152.36    5.59
  -5   7   1  149.82    8.67
  -5  -7   1  152.00    5.90
  -5   7   0   -0.32    0.66
   5  -7   0    0.39    0.48
   5  -7   0    0.18    0.40
  -5   7   0    0.12    0.27
   5   7   0   -0.17    0.32
  -5   7   0    0.24    0.50
  -5   7  -1  150.15    6.87
   5  -7  -1  155.79    6.69
   5   7  -1  146.53    6.46
  -5   7  -1  153.38    6.20
   5  -7  -2   28.58    2.78
  -5   7  -2   25.33    2.24
  -5   7  -2   27.18    2.42
   5  -7  -2   25.09    2.23
  -5   7  -2   25.57    2.07
  -5  -7  -2   26.83    2.40
  -5   7  -3    6.11    1.03
   5  -7  -3    4.95    1.02
   5  -7  -3    6.14    1.44
  -5   7  -3    2.51    0.85
  -5   7  -3    4.40    1.11
  -5   7  -3    5.57    1.00
  -5  -7  -3    5.59    1.27
   5  -7  -4   10.48    1.57
  -5   7  -4    9.88    1.28
   5  -7  -4   13.41    2.22
  -5   7  -4   10.51    1.70
  -5  -7  -4    9.37    1.75
  -5   7  -4   13.11    2.11
  -5   7  -4   10.94    1.41
  -5   7  -5   74.73    4.82
  -5   7  -5   71.67    5.46
  -5   7  -5   66.73    3.64
  -5   7  -6   30.86    2.26
  -6  -7   6   10.35    1.63
  -6   7   4   68.68    6.52
  -6  -7   3   43.12    2.73
  -6   7   3   39.17    4.34
  -6   7   2   10.83    1.04
  -6   7   2   12.62    2.15
  -6   7   1    9.30    1.98
  -6   7   1    9.80    1.80
  -6   7   1   10.83    1.19
  -6  -7   1   12.08    1.20
   6   7   0   16.34    1.92
  -6   7   0   13.04    2.14
   6  -7   0   19.05    2.04
  -6   7   0   17.18    1.59
  -6   7  -1   12.18    1.63
   6  -7  -1   13.16    1.67
  -6   7  -1   14.55    2.06
  -6   7  -1   13.54    1.51
   6  -7  -1    7.84    1.40
   6   7  -1    8.40    1.43
   6  -7  -2   15.01    1.97
  -6   7  -2   13.81    1.68
  -6  -7  -2   14.95    1.90
  -6   7  -2   11.28    1.67
  -6   7  -2   15.20    1.69
  -6   7  -3   46.06    3.05
   6  -7  -3   47.46    3.25
  -6   7  -3   43.38    3.06
  -6   7  -3   47.30    3.75
  -6  -7  -3   44.78    3.70
   6  -7  -3   37.81    3.49
  -6   7  -4   53.05    3.96
  -6   7  -4   58.28    3.42
   6  -7  -4   51.62    3.60
  -6   7  -4   53.45    4.40
  -6  -7  -4   52.38    4.38
   6  -7  -4   49.89    4.27
  -6  -7  -5   14.78    2.44
  -6   7  -5   17.66    1.82
  -6   7  -6    9.48    1.32
  -6   7  -6   11.45    2.37
  -6  -7  -6    8.48    1.94
  -7   7   4    4.09    1.81
  -7   7   3   89.44    6.73
  -7   7   2   55.62    4.65
  -7   7   1  119.91    6.77
  -7  -7   1  129.71    5.07
  -7   7   1  127.82    7.89
  -7   7   0    9.90    1.86
   7  -7   0    9.50    1.59
  -7   7   0   10.23    1.39
   7   7   0   11.04    1.79
   7  -7  -1  130.05    6.34
  -7   7  -1  140.14    6.63
  -7   7  -1  127.61    6.07
   7  -7  -1  129.98    6.72
   7   7  -1  136.78    6.71
  -7   7  -1  128.27    7.19
   7  -7  -2   48.96    3.58
  -7   7  -2   50.47    3.48
  -7   7  -2   51.81    3.49
  -7   7  -2   52.52    4.11
   7  -7  -3   97.54    5.60
  -7   7  -3   94.07    4.97
  -7   7  -3   87.36    5.67
  -7   7  -3   97.19    5.10
  -7  -7  -3   90.60    5.76
  -7   7  -4    4.54    0.97
  -7   7  -4    4.33    1.39
   7  -7  -4    4.61    1.32
  -7   7  -4    5.64    1.39
  -7  -7  -4    6.98    1.78
  -7  -7  -5   11.98    2.30
  -7   7  -5   11.10    1.49
  -7   7  -5   13.22    2.08
  -7   7  -5   14.80    2.58
  -7   7  -6   11.32    1.50
  -7   7  -6    5.86    1.84
  -7  -7  -6    8.23    1.99
  -8   7   5    2.79    1.95
  -8   7   4   25.09    3.89
  -8   7   3    4.06    1.58
  -8   7   2   72.91    5.40
  -8   7   1   48.97    4.02
  -8  -7   1   52.39    2.65
  -8   7   1   52.47    4.83
   8  -7   0   85.39    5.31
   8   7   0   80.86    5.19
  -8   7   0   78.39    4.56
  -8   7   0   81.53    5.76
  -8   7  -1   58.90    4.64
  -8   7  -1   62.24    4.11
  -8   7  -1   55.79    3.81
   8  -7  -1   53.61    4.23
   8   7  -1   55.10    4.12
  -8   7  -2   63.44    4.70
   8  -7  -2   65.28    4.16
   8   7  -2   58.02    4.33
  -8   7  -2   57.77    3.93
  -8   7  -2   69.70    4.28
  -8   7  -3    2.88    0.86
  -8   7  -3    4.03    1.19
   8  -7  -3    2.31    0.90
  -8   7  -3    3.27    1.10
  -8  -7  -3    3.67    1.21
  -8   7  -4   27.92    2.52
  -8   7  -4   30.95    3.51
  -8  -7  -4   30.70    3.51
  -8   7  -5    1.72    0.75
  -8   7  -5    1.32    1.16
  -8   7  -5    2.69    1.08
  -8  -7  -5    1.31    1.15
  -8   7  -6   38.18    2.97
  -8   7  -6   32.71    4.16
  -9   7   5   28.35    4.53
  -9   7   4    1.70    1.18
  -9   7   3    1.82    1.20
  -9   7   2   14.70    2.42
  -9   7   1  122.30    6.97
  -9   7   1  126.62    8.16
  -9  -7   1  123.37    4.75
   9  -7   0   25.70    3.03
   9   7   0   29.66    3.19
  -9   7   0   32.74    3.62
  -9   7  -1  134.93    6.82
  -9   7  -1  125.27    6.56
   9  -7  -1  143.69    7.67
   9   7  -1  135.85    7.36
  -9   7  -1  121.78    7.46
  -9   7  -2   11.48    1.72
  -9   7  -2   13.37    2.24
   9  -7  -2   14.13    2.32
   9   7  -2   12.26    2.07
  -9   7  -2   14.55    2.00
  -9   7  -3    1.70    0.78
  -9   7  -3    0.33    0.54
  -9   7  -4    1.67    0.67
  -9   7  -4    2.00    1.05
  -9  -7  -4    0.82    0.85
  -9   7  -5   38.34    3.14
  -9   7  -5   38.04    4.30
  -9  -7  -5   40.14    4.34
  -9   7  -6   23.05    2.37
 -10   7   4   27.15    4.08
 -10   7   3   25.13    3.51
 -10   7   2    5.10    1.56
 -10   7   1   13.80    2.62
 -10   7   1   15.71    2.33
 -10   7   0    7.18    1.82
  10   7   0    9.76    1.98
  10  -7   0    7.19    1.74
 -10   7  -1   17.41    2.64
 -10   7  -1   21.04    2.48
  10  -7  -1   17.51    2.65
  10   7  -1   13.90    2.30
 -10   7  -1   17.76    2.24
 -10   7  -2    5.11    1.26
 -10   7  -2    4.77    1.42
  10  -7  -2    7.30    1.80
  10   7  -2    3.61    1.27
 -10   7  -3   26.94    3.12
 -10   7  -3   22.20    2.44
 -10   7  -4   29.98    3.62
 -10  -7  -4   29.35    3.63
 -10   7  -4   32.13    2.95
 -10   7  -5    1.52    0.71
 -11   7   3  105.83    7.53
 -11   7   2   29.01    3.46
 -11   7   1   57.94    4.74
 -11   7   1   60.32    5.64
 -11   7   0   -0.45    0.83
 -11   7  -1   64.36    4.62
 -11   7  -1   57.14    5.08
 -11   7  -2   28.18    2.93
 -11   7  -2   26.31    3.28
 -11   7  -3   98.65    5.85
 -12   7   1   38.02    4.55
 -12   7   0   13.90    2.26
 -12   7   0   15.48    2.76
 -12   7  -1   37.26    3.58
 -12   7  -1   37.42    4.13
 -13   7   1   37.47    4.70
   0  -8   5    0.56    0.69
   0  -8   4  104.47    5.56
   0  -8   3    0.19    0.39
   0  -8   2   19.41    1.74
   0  -8   1   -0.14    0.32
   0  -8   1    0.33    0.34
   0  -8   1   -0.12    0.19
   0  -8   0  168.89    7.21
   0  -8   0  166.40    5.99
   0  -8   0  162.49    7.39
   0  -8  -1   -0.29    0.46
   0  -8  -1   -0.07    0.12
   0  -8  -1   -0.26    0.41
   0  -8  -2   14.48    2.42
   0  -8  -2   22.56    1.07
   0   8  -2   15.71    2.06
   0  -8  -2   20.39    2.53
   0   8  -3   -0.22    0.45
   0  -8  -3    0.37    0.60
   0   8  -4  107.39    5.43
   0   8  -5   -0.42    0.52
   0   8  -6   30.13    2.65
   0   8  -7    0.23    0.56
   1  -8   5   25.59    2.87
  -1  -8   5   28.08    2.75
   1  -8   4   49.69    3.68
  -1  -8   4   45.19    3.28
   1  -8   3   49.24    3.35
  -1  -8   3   38.04    2.79
  -1  -8   2   20.30    1.41
   1  -8   2   19.91    1.88
  -1  -8   2   17.27    1.58
  -1  -8   1  125.10    5.38
   1  -8   1  118.55    5.40
   1  -8   1  112.34    4.91
   1  -8   1  119.53    5.14
  -1  -8   1  107.76    4.67
  -1  -8   1  122.16    5.34
  -1  -8   0   49.17    3.56
   1  -8   0   53.42    3.29
  -1  -8   0   52.48    3.62
   1  -8   0   55.85    2.83
  -1  -8   0   53.34    2.53
  -1   8   0   52.28    4.63
   1  -8   0   51.35    3.51
  -1  -8  -1  110.77    6.48
   1  -8  -1  129.64    6.09
   1  -8  -1  115.86    4.44
  -1  -8  -1  114.85    6.56
  -1   8  -1  114.54    6.65
  -1   8  -1  118.25    6.67
   1  -8  -1  121.53    6.48
   1  -8  -2   19.20    2.27
   1  -8  -2   18.49    2.54
  -1   8  -2   16.92    1.38
  -1  -8  -2   19.17    2.71
  -1   8  -2   17.64    2.18
   1   8  -2   19.33    2.23
  -1   8  -2   15.72    2.01
   1  -8  -3   49.14    4.05
   1   8  -3   56.14    3.61
  -1  -8  -3   49.40    4.77
   1  -8  -3   38.11    4.22
  -1   8  -3   52.52    3.54
  -1   8  -3   52.14    3.62
  -1   8  -4   39.42    3.11
  -1   8  -4   37.87    2.72
   1   8  -4   46.19    3.08
  -1   8  -5   29.51    2.65
   1   8  -5   32.97    2.61
   1   8  -6   22.99    2.19
  -1   8  -6   23.51    2.45
   1   8  -7    7.10    1.28
  -1   8  -7    7.73    1.43
  -2  -8   5   10.07    1.63
   2  -8   4   67.39    4.68
  -2  -8   4   70.98    4.14
  -2  -8   3   13.10    1.47
   2  -8   3   11.49    1.69
  -2  -8   2  109.16    4.48
   2  -8   2  107.78    5.44
  -2  -8   2  115.79    4.89
   2  -8   1    6.79    0.95
  -2  -8   1    6.45    1.03
   2  -8   1    7.74    1.18
  -2   8   1    6.98    1.83
   2  -8   1    5.48    1.01
  -2  -8   1    5.79    1.12
   2  -8   0  379.63   13.48
   2  -8   0  363.75   12.75
  -2   8   0  374.57   15.18
  -2  -8   0  361.46   14.27
  -2  -8   0  362.99   13.60
   2  -8  -1    7.04    1.21
  -2  -8  -1    5.10    1.40
  -2   8  -1    3.56    1.15
   2  -8  -1    6.39    1.37
   2  -8  -1    6.64    0.70
  -2  -8  -1    6.30    1.59
  -2   8  -1    9.52    1.66
   2   8  -1    5.96    0.55
  -2  -8  -2  104.10    4.61
   2  -8  -2  105.03    5.64
  -2   8  -2  103.30    4.47
  -2  -8  -2   94.93    6.92
   2  -8  -2  117.68    6.67
  -2   8  -2  109.38    5.89
  -2   8  -2  102.37    5.51
   2   8  -3   10.64    1.53
  -2   8  -3   13.85    1.88
   2  -8  -3   15.68    2.07
  -2  -8  -3   12.68    2.70
  -2   8  -3   14.76    1.73
  -2   8  -4   58.49    4.04
   2  -8  -4   63.84    4.68
  -2  -8  -4   67.32    2.39
   2   8  -4   63.46    3.74
  -2   8  -4   69.13    3.73
  -2   8  -5    9.20    1.55
  -2   8  -5   11.63    1.31
   2   8  -5   12.26    1.52
  -2   8  -6   39.51    3.27
   2   8  -6   38.35    2.78
  -2   8  -7    1.89    0.84
  -3  -8   5   24.72    2.45
  -3  -8   4   56.64    3.56
  -3  -8   3    5.51    0.94
  -3  -8   2   46.58    2.68
  -3   8   2   39.27    4.58
  -3  -8   1   39.84    2.58
  -3  -8   1   39.60    3.22
   3  -8   0   13.30    1.66
   3  -8   0   12.50    1.42
  -3  -8   0    8.37    1.84
  -3   8   0   13.49    2.12
  -3  -8   0   14.51    1.83
   3  -8  -1   39.70    2.79
   3  -8  -1   37.89    2.16
   3   8  -1   31.51    1.91
  -3  -8  -1   26.06    3.56
   3  -8  -1   37.78    3.18
  -3   8  -1   41.76    3.57
  -3   8  -1   32.14    2.96
  -3   8  -2   47.53    3.36
   3  -8  -2   52.97    3.56
  -3   8  -2   43.96    2.75
  -3  -8  -2   49.60    2.96
   3  -8  -2   43.94    3.83
  -3   8  -2   54.13    3.90
  -3  -8  -3    4.35    1.04
  -3   8  -3    4.88    1.20
  -3  -8  -3    4.44    1.79
  -3   8  -3    3.73    0.93
  -3   8  -3    4.81    0.94
  -3   8  -4   55.02    3.88
  -3   8  -4   57.87    3.29
   3  -8  -4   48.15    3.85
   3   8  -4   48.43    3.14
  -3  -8  -4   50.28    5.46
   3  -8  -4   50.91    4.78
  -3   8  -5   21.32    2.43
  -3   8  -5   24.11    1.97
  -3  -8  -5   21.85    1.22
   3   8  -5   19.87    1.82
  -3   8  -6   38.65    2.41
  -3   8  -6   44.46    3.56
   3   8  -6   39.49    2.63
  -3   8  -7   12.44    1.96
  -4  -8   6   20.92    2.41
  -4  -8   5   10.40    1.53
  -4  -8   4   36.87    2.78
  -4  -8   3    2.83    0.36
  -4   8   3    2.98    1.47
  -4   8   2    0.48    1.56
  -4  -8   2    4.35    0.91
  -4  -8   1    8.12    1.12
  -4  -8   1    7.01    1.62
  -4   8   1    8.54    0.72
   4  -8   0   69.51    4.07
  -4   8   0   61.34    2.88
  -4  -8   0   71.02    4.44
  -4   8   0   69.84    4.82
   4   8  -1    6.67    0.98
   4  -8  -1    7.73    1.45
   4  -8  -1    6.91    1.14
  -4   8  -1    7.38    0.92
   4  -8  -1    7.01    1.05
  -4   8  -1    7.23    1.41
   4  -8  -2    3.35    0.92
  -4   8  -2    5.67    1.32
  -4   8  -2    2.02    0.67
  -4   8  -2    3.18    0.89
  -4  -8  -2    3.50    0.82
  -4   8  -2    2.76    0.63
  -4  -8  -3    3.79    0.97
   4  -8  -3    2.79    1.08
  -4   8  -3    4.10    1.17
  -4   8  -3    2.72    0.88
  -4   8  -3    3.17    0.76
  -4   8  -3    3.57    0.91
  -4   8  -4   37.53    3.21
  -4   8  -4   40.92    3.53
  -4   8  -4   31.39    2.45
   4  -8  -4   37.80    3.19
  -4  -8  -4   30.18    3.05
   4  -8  -4   37.58    4.01
  -4   8  -5    6.39    1.05
  -4   8  -5   11.12    1.77
  -4   8  -6   25.75    2.82
  -4   8  -6   25.70    2.05
  -5  -8   3   49.29    2.22
  -5   8   3   48.76    5.42
  -5   8   2   15.61    2.74
  -5  -8   2   16.61    2.07
  -5   8   1  111.00    4.24
  -5  -8   1  116.35    4.93
  -5   8   0   16.32    2.25
   5  -8   0   19.18    2.03
  -5   8   0   20.90    2.78
   5  -8   0   18.37    1.82
  -5   8   0   17.06    1.40
  -5  -8   0   18.09    2.19
  -5   8  -1  124.71    6.39
   5  -8  -1  126.79    5.80
  -5   8  -1  126.63    5.23
   5   8  -1  119.15    5.56
  -5   8  -2   17.42    1.99
   5  -8  -2   17.17    2.25
  -5  -8  -2   18.48    1.93
   5  -8  -2   16.81    1.89
  -5   8  -2   18.14    1.68
  -5   8  -2   19.65    2.46
  -5   8  -3   47.11    3.85
  -5   8  -3   54.45    3.45
  -5   8  -3   45.23    2.99
  -5   8  -3   51.58    3.74
  -5  -8  -3   53.79    3.85
   5  -8  -3   51.60    4.20
  -5  -8  -4   41.48    3.77
  -5   8  -4   41.06    3.65
  -5   8  -4   39.67    2.83
  -5   8  -4   44.44    3.65
   5  -8  -4   39.36    3.93
  -5   8  -5   11.41    2.13
  -5   8  -5   15.09    1.64
  -5   8  -5   14.90    2.16
  -5  -8  -5    9.69    1.98
  -5   8  -6   38.14    3.56
  -5   8  -6   44.17    2.91
  -5   8  -6   44.56    4.62
  -6   8   4   17.55    3.54
  -6   8   3   39.68    4.74
  -6  -8   3   38.13    2.35
  -6   8   2   33.03    1.72
  -6   8   2   37.35    4.06
  -6  -8   1    2.26    0.60
  -6   8   1    2.55    0.53
  -6   8   0  115.79    6.58
   6  -8   0  117.49    5.86
  -6   8   0  124.12    5.14
  -6   8   0  121.77    7.42
  -6   8  -1    4.80    1.36
   6   8  -1    2.06    0.72
  -6   8  -1    2.44    0.67
   6  -8  -1    2.01    0.72
  -6   8  -1    2.32    0.80
   6  -8  -2   37.41    3.23
  -6   8  -2   34.28    2.90
  -6   8  -2   29.50    2.37
  -6   8  -3   37.74    3.51
  -6   8  -3   33.93    2.85
  -6   8  -3   41.12    3.41
   6  -8  -3   39.00    3.05
  -6   8  -3   44.14    2.95
  -6  -8  -3   40.03    3.44
   6  -8  -3   38.96    3.61
  -6   8  -4   15.62    1.80
  -6   8  -4   18.19    2.37
  -6   8  -4   12.56    2.08
  -6  -8  -4   13.55    2.18
  -6   8  -5    0.79    0.98
  -6   8  -5    0.39    0.40
  -6   8  -5    0.32    0.51
  -6  -8  -5    0.77    0.80
  -6  -8  -6    1.62    1.00
  -6   8  -6    0.75    0.43
  -6   8  -6    0.47    0.97
  -7   8   4   43.87    5.53
  -7  -8   3   12.01    1.60
  -7   8   3   13.85    2.74
  -7   8   2   46.65    2.47
  -7   8   2   47.33    4.56
  -7   8   1   13.95    2.68
  -7   8   1   14.02    1.42
  -7  -8   1   14.71    1.35
  -7   8   0   -0.41    0.66
   7  -8   0    0.25    0.41
  -7   8   0    0.16    0.37
  -7   8   0   -0.30    0.56
  -7   8  -1   13.43    1.91
   7  -8  -1   16.50    2.09
   7  -8  -1   16.20    1.99
  -7   8  -1   14.21    2.31
   7   8  -1   12.37    1.79
  -7   8  -1   12.79    1.53
   7  -8  -2   40.21    3.37
  -7   8  -2   47.43    3.49
   7   8  -2   39.02    3.20
  -7   8  -2   38.71    2.87
   7  -8  -3   13.00    2.02
  -7   8  -3   15.30    1.86
  -7   8  -3   15.19    2.12
  -7   8  -3   12.91    1.69
  -7  -8  -3   12.11    1.99
  -7   8  -4   57.55    4.51
  -7   8  -4   56.11    3.76
  -7   8  -4   56.49    4.60
  -7  -8  -4   53.43    4.57
  -7   8  -5   24.54    2.98
  -7   8  -5   27.36    2.45
  -7   8  -5   32.65    3.73
  -7  -8  -5   26.86    3.35
  -7  -8  -6    2.58    1.33
  -7   8  -6    3.77    0.92
  -7   8  -6    2.40    1.55
  -8   8   4    5.95    0.47
  -8   8   4    5.12    1.89
  -8   8   3    0.74    0.31
  -8   8   3   -0.52    0.97
  -8   8   2    4.76    0.83
  -8   8   2    4.28    1.50
  -8   8   1   16.91    2.97
  -8   8   1   18.17    1.79
  -8  -8   1   17.60    1.42
  -8   8   0    5.58    1.65
   8  -8   0    3.25    1.07
  -8   8   0    5.25    1.02
   8   8   0    2.83    1.03
  -8   8   0    4.40    1.28
  -8   8  -1   18.63    2.34
  -8   8  -1   18.22    2.68
   8  -8  -1   16.87    2.29
  -8   8  -1   20.48    2.10
   8   8  -1   17.59    2.27
  -8   8  -2    3.91    1.12
  -8   8  -2    4.74    1.36
   8  -8  -2    2.55    0.95
   8  -8  -2    3.66    1.11
   8   8  -2    2.54    1.09
  -8   8  -2    5.23    1.12
  -8   8  -3    0.99    0.77
  -8  -8  -3    0.32    0.52
  -8   8  -4    7.40    1.43
  -8   8  -4    8.08    1.78
  -8   8  -4    8.12    1.80
  -8  -8  -4   11.01    2.10
  -8   8  -5    3.01    1.33
  -8  -8  -5    0.85    0.89
  -8   8  -5    2.78    0.89
  -8   8  -6    2.26    0.79
  -9   8   4   33.49    4.69
  -9   8   3   18.14    1.60
  -9   8   3   22.26    3.48
  -9   8   2   18.94    1.84
  -9   8   2   19.96    2.96
  -9   8   1   20.01    2.78
  -9   8   1   24.83    3.67
  -9   8   1   26.72    2.32
  -9  -8   1   23.29    1.52
  -9   8   0    3.17    1.40
  -9   8   0    4.11    1.03
   9  -8   0    4.02    1.21
  -9   8  -1   23.00    3.06
  -9   8  -1   23.62    2.69
  -9   8  -1   21.99    2.37
   9  -8  -1   23.42    2.92
   9   8  -1   23.31    2.75
  -9   8  -2   21.69    2.90
  -9   8  -2   22.59    2.54
   9  -8  -2   18.23    2.59
   9   8  -2   18.18    2.46
  -9   8  -3   16.47    2.50
  -9   8  -3   21.51    2.46
  -9   8  -4   38.68    3.95
  -9   8  -4   39.14    3.31
  -9  -8  -4   38.84    4.04
  -9   8  -5   16.29    2.05
  -9   8  -5   16.03    2.73
  -9  -8  -5   17.80    2.91
 -10   8   3   18.29    3.23
 -10   8   2    2.22    1.10
 -10   8   1   12.41    2.68
 -10   8   1   13.21    1.71
 -10   8   1   10.29    2.07
  10  -8   0    2.99    1.26
 -10   8   0    2.86    1.47
 -10   8   0    2.90    0.93
 -10   8  -1    9.86    1.87
 -10   8  -1   11.75    2.31
  10  -8  -1   10.21    2.04
  10   8  -1    9.44    1.92
 -10   8  -2    1.49    0.74
 -10   8  -2    2.46    1.15
  10   8  -2    2.84    1.15
 -10   8  -3   17.17    2.66
 -10   8  -3   21.38    2.54
 -10   8  -4   45.69    3.69
 -11   8   1    5.63    2.04
 -11   8   1    6.02    1.59
 -11   8   0    3.01    1.55
 -11   8  -1    3.37    1.18
 -11   8  -1    6.42    1.76
 -11   8  -2   26.20    2.98
 -11   8  -3   30.76    3.18
 -12   8   1   22.85    3.68
   0  -9   6    0.36    0.58
   0  -9   5    4.83    1.33
   0  -9   4    0.25    0.41
   0  -9   3   43.12    3.10
   0  -9   2    0.17    0.32
   0  -9   1   44.93    3.01
   0  -9   1   43.37    2.77
   0  -9   1   43.11    2.66
   0  -9   0   -0.24    0.38
   0  -9   0   -0.11    0.29
   0  -9   0   -0.21    0.44
   0  -9  -1   43.20    3.45
   0  -9  -1   39.80    2.08
   0  -9  -1   40.35    3.59
   0   9  -2   -0.31    0.49
   0  -9  -2   -0.38    0.70
   0  -9  -2    0.10    0.17
   0   9  -2   -0.14    0.19
   0  -9  -2    0.65    0.67
   0  -9  -3   43.57    4.63
   0   9  -3   52.17    3.84
   0  -9  -3   53.82    4.67
   0   9  -4    0.49    0.56
   0   9  -5    4.64    1.10
   0   9  -6    0.25    0.40
   0   9  -7    3.30    0.98
   1  -9   6   19.51    2.78
  -1  -9   6   14.54    2.27
   1  -9   5    9.74    1.89
  -1  -9   5   10.98    1.76
   1  -9   4    7.93    1.48
  -1  -9   4    7.21    1.32
   1  -9   3   99.80    5.29
  -1  -9   3   90.57    4.77
  -1  -9   2  102.04    4.32
   1  -9   2  105.24    5.22
  -1  -9   2  106.94    4.89
  -1  -9   1  189.49    7.98
   1  -9   1  209.41    8.30
  -1  -9   1  188.19    7.93
   1  -9   1  217.09    7.85
   1  -9   1  200.39    7.90
  -1  -9   1  209.87    7.54
   1  -9   0   31.53    2.73
  -1  -9   0   27.91    2.65
   1  -9   0   30.78    2.50
   1  -9   0   27.26    2.01
  -1  -9   0   30.15    1.85
  -1  -9   0   29.75    2.70
   1  -9  -1  205.56    8.69
   1  -9  -1  205.02    7.05
  -1  -9  -1  191.99    6.69
  -1   9  -1  202.52   10.02
  -1  -9  -1  191.01    9.30
   1  -9  -1  196.76    9.23
  -1  -9  -1  203.46    9.39
   1  -9  -2  103.56    6.00
  -1  -9  -2  108.99    3.77
  -1   9  -2  110.12    4.10
  -1   9  -2  100.84    6.30
  -1  -9  -2  109.97    7.06
  -1   9  -2   97.42    6.06
   1  -9  -2  103.61    6.59
  -1  -9  -2  101.52    6.67
  -1  -9  -2  106.59    4.32
   1  -9  -3   99.26    6.14
  -1   9  -3   93.57    5.61
   1  -9  -3   96.91    6.84
   1   9  -3  103.61    5.66
  -1  -9  -3   96.90    6.88
  -1   9  -3   95.01    5.60
   1   9  -4    8.45    1.45
  -1   9  -4    7.33    1.42
   1   9  -5    7.45    1.34
  -1   9  -5    6.54    1.39
   1   9  -6   13.58    1.79
  -1   9  -6   12.73    1.93
  -1   9  -7   19.58    2.36
  -2  -9   5   13.58    1.91
   2  -9   4   11.54    1.88
  -2  -9   4   10.54    1.61
  -2  -9   3   18.59    1.83
   2  -9   3   13.41    1.95
  -2  -9   2    6.00    0.85
   2  -9   2    4.61    1.09
  -2  -9   2    5.42    0.93
  -2  -9   1   27.81    2.28
  -2  -9   1   28.18    2.47
   2  -9   1   29.31    2.45
   2  -9   1   30.53    2.45
   2  -9   1   33.28    2.27
   2  -9   0    0.90    0.53
  -2  -9   0   -0.24    0.50
   2  -9   0    0.46    0.57
  -2   9   0    0.84    0.78
  -2  -9   0    1.14    0.75
   2  -9  -1   36.72    2.89
  -2  -9  -1   34.29    3.42
  -2   9  -1   28.31    3.26
  -2   9  -1   37.41    3.73
  -2  -9  -1   39.58    3.86
   2  -9  -1   37.97    3.33
  -2  -9  -2    5.21    0.81
  -2   9  -2    4.29    1.25
   2  -9  -2    3.10    1.12
  -2   9  -2    6.09    0.81
  -2  -9  -2    6.74    1.78
  -2   9  -2    4.14    1.27
   2  -9  -2    5.37    1.20
  -2   9  -3   17.29    1.78
   2  -9  -3   18.79    2.84
  -2   9  -3   15.36    2.14
  -2   9  -3   18.11    2.14
  -2  -9  -3   15.21    2.79
   2  -9  -3   15.94    2.18
   2   9  -4    5.84    1.22
  -2   9  -4   10.88    1.78
  -2   9  -4    9.11    1.48
   2   9  -5   11.43    1.57
  -2   9  -5    8.05    1.55
  -2   9  -5    9.81    1.36
   2   9  -6   10.00    1.47
  -2   9  -6   12.20    1.95
  -2   9  -7    2.65    1.03
  -3  -9   5   25.35    2.59
  -3  -9   4   12.42    1.64
  -3  -9   3   39.21    2.75
  -3  -9   2   57.72    3.13
  -3  -9   1  177.74    7.24
  -3   9   1  182.28   10.30
  -3  -9   1  178.18    8.05
   3  -9   0   25.86    2.47
   3  -9   0   24.58    2.13
  -3   9   0   22.23    2.99
  -3  -9   0   26.43    3.03
  -3  -9   0   24.70    2.50
  -3   9  -1  153.47    8.60
   3  -9  -1  176.80    7.58
   3  -9  -1  170.75    6.13
  -3  -9  -1  176.96    9.76
  -3  -9  -1  177.71    8.88
  -3   9  -1  168.93    8.60
   3  -9  -1  172.40    8.22
   3  -9  -2   52.14    3.67
  -3  -9  -2   53.20    2.96
  -3  -9  -2   52.69    5.36
  -3   9  -2   52.50    4.23
   3  -9  -2   52.13    4.26
  -3   9  -2   51.44    3.86
  -3  -9  -3   39.16    2.94
   3  -9  -3   43.55    3.48
  -3  -9  -3   30.69    4.30
  -3   9  -3   36.01    2.81
  -3   9  -3   37.29    3.42
  -3   9  -3   39.15    3.13
  -3   9  -4   17.91    2.30
  -3   9  -4   14.91    2.06
  -3   9  -4   18.00    2.00
  -3   9  -5   23.37    2.75
   3   9  -5   19.92    2.04
  -3   9  -5   21.30    2.08
  -3   9  -6    3.63    1.17
  -3   9  -7   19.50    2.60
  -4  -9   5    1.72    0.73
  -4  -9   4   68.36    4.11
  -4  -9   3   22.00    1.21
  -4  -9   2   19.23    1.86
  -4  -9   1   47.36    2.94
  -4  -9   1   49.04    3.94
  -4   9   1   45.73    4.62
   4  -9   0   41.76    3.28
  -4  -9   0   49.81    4.64
  -4  -9   0   45.61    3.45
  -4   9   0   47.95    4.34
   4   9  -1   45.39    2.52
   4  -9  -1   43.07    3.52
   4  -9  -1   41.76    3.04
   4  -9  -1   48.38    2.77
  -4  -9  -1   52.26    5.31
  -4   9  -1   52.38    4.42
  -4   9  -1   42.12    3.71
  -4   9  -2   19.87    2.34
  -4  -9  -2   21.20    1.86
   4  -9  -2   20.49    2.18
  -4   9  -2   21.46    2.69
  -4   9  -3   16.13    1.98
  -4   9  -3   19.62    2.49
  -4   9  -3   17.36    1.96
  -4  -9  -3   23.37    2.31
  -4   9  -4   56.07    4.42
  -4   9  -4   63.79    3.92
  -4  -9  -4   65.96    4.55
  -4   9  -4   56.75    4.23
  -4   9  -5    0.94    0.65
  -4   9  -5    0.71    0.66
  -4   9  -5    1.56    0.60
  -4   9  -6    6.43    1.54
  -5  -9   5   34.98    2.97
  -5  -9   3  111.19    4.06
  -5   9   3   89.94    8.07
  -5   9   2   36.78    4.51
  -5  -9   2   42.97    3.21
  -5   9   1   75.75    3.06
  -5  -9   1   66.71    5.24
  -5   9   1   77.53    5.98
  -5  -9   1   79.10    3.92
   5  -9   0   21.89    2.28
  -5   9   0   21.49    1.51
  -5  -9   0   22.74    2.43
  -5   9   0   20.31    2.70
  -5   9  -1   75.38    5.16
   5  -9  -1   75.68    4.83
  -5   9  -1   78.07    3.72
   5  -9  -1   83.17    4.32
   5   9  -1   84.25    4.14
  -5   9  -2   37.97    3.29
   5   9  -2   40.78    2.80
   5  -9  -2   39.96    3.08
  -5   9  -2   44.23    2.72
  -5   9  -2   41.19    3.83
  -5   9  -3  107.82    5.70
  -5   9  -3  109.31    5.69
  -5  -9  -3  120.56    6.02
  -5   9  -3  106.02    5.05
   5  -9  -3  107.26    6.64
  -5   9  -3   96.20    6.27
  -5   9  -4    8.23    1.66
  -5   9  -4    6.87    1.51
  -5  -9  -4    8.04    1.59
  -5   9  -4    4.36    1.03
  -5   9  -5   28.34    3.15
  -5  -9  -5   30.05    3.38
  -5   9  -5   31.03    2.64
  -5   9  -5   37.20    3.72
  -5  -9  -6   13.00    2.32
  -5   9  -6   17.78    2.53
  -5   9  -6   16.75    2.82
  -6  -9   5    3.10    0.89
  -6   9   3    1.26    1.31
  -6  -9   3    3.78    0.69
  -6   9   2   32.38    1.54
  -6  -9   2   32.79    3.13
  -6   9   2   33.85    4.18
  -6   9   1   40.51    2.15
  -6  -9   1   41.39    2.55
  -6  -9   0    0.26    0.48
  -6   9   0   -0.44    0.59
  -6   9   0    0.35    0.31
  -6   9   0   -0.36    0.66
  -6   9  -1   41.94    3.68
  -6   9  -1   39.53    2.56
   6  -9  -1   43.42    3.18
   6   9  -1   39.58    2.95
   6  -9  -2   35.52    3.24
  -6   9  -2   34.10    3.10
   6  -9  -2   32.33    2.80
   6   9  -2   33.37    2.70
  -6   9  -2   25.52    2.16
  -6   9  -2   36.81    3.70
  -6   9  -3    4.61    1.41
  -6   9  -3    4.83    1.24
  -6  -9  -3    4.84    1.26
  -6   9  -3    4.81    0.96
  -6   9  -3    2.99    0.94
  -6   9  -4   13.25    1.79
  -6  -9  -4   14.77    2.24
  -6   9  -4   16.05    2.38
  -6   9  -4   12.99    2.08
  -6   9  -5    2.87    0.83
  -6   9  -5    2.12    1.04
  -6   9  -5    3.46    1.24
  -6  -9  -5    3.03    1.17
  -6  -9  -6   45.04    4.36
  -6   9  -6   45.20    4.61
  -7   9   4   10.25    2.99
  -7   9   3   15.77    3.23
  -7   9   2   31.08    1.70
  -7   9   2   31.49    4.07
  -7   9   1  135.76    5.20
  -7  -9   1  122.25    5.20
  -7  -9   0   10.92    1.73
  -7   9   0   14.39    2.61
  -7   9   0   12.83    1.36
   7  -9  -1  125.63    6.55
  -7   9  -1  124.22    6.97
  -7   9  -1  121.44    5.58
   7  -9  -1  127.38    6.55
  -7   9  -1  133.89    7.97
   7   9  -1  129.30    6.35
  -7   9  -2   29.25    2.92
   7  -9  -2   27.76    2.85
   7   9  -2   30.87    2.81
  -7   9  -2   27.93    2.35
  -7   9  -3   15.50    2.05
  -7   9  -3   14.20    2.35
  -7  -9  -3   18.49    2.31
  -7   9  -4    8.44    1.48
  -7   9  -4    7.78    1.77
  -7   9  -4   10.38    1.88
  -7  -9  -4    5.92    1.54
  -7   9  -5  138.60    6.55
  -7   9  -5  119.07    7.54
  -7  -9  -5  119.42    7.55
  -7   9  -6    6.04    1.84
  -7  -9  -6    5.14    1.60
  -8   9   4   65.02    7.00
  -8   9   3   17.27    3.36
  -8   9   2   38.84    2.20
  -8   9   2   44.23    4.76
  -8  -9   1    4.47    0.73
  -8   9   1    4.74    0.87
  -8   9   0   20.94    3.29
  -8   9   0   22.95    2.01
  -8  -9   0   19.63    2.42
  -8   9   0   19.99    2.73
  -8   9  -1    5.25    1.59
   8   9  -1    5.96    1.29
   8  -9  -1    3.88    1.16
  -8   9  -1    5.79    1.10
  -8   9  -1    5.53    1.46
  -8   9  -2   44.05    3.71
   8  -9  -2   38.06    3.51
  -8   9  -2   42.11    3.08
   8   9  -2   38.74    3.42
  -8   9  -2   43.52    4.26
  -8   9  -3   23.91    2.62
  -8   9  -4   71.92    5.54
  -8   9  -4   70.46    4.64
  -8   9  -4   74.64    5.38
  -8  -9  -4   77.82    5.58
  -8   9  -5   11.07    1.69
  -8   9  -5   10.39    2.25
  -8  -9  -5   11.65    2.28
  -9   9   3   76.99    6.88
  -9   9   2   33.88    2.28
  -9   9   2   38.67    4.37
  -9   9   1   12.39    2.88
  -9   9   1   13.48    1.55
  -9   9   0    1.02    0.95
  -9   9   0    0.19    0.40
  -9   9   0   -0.37    0.70
  -9   9  -1   10.62    2.31
   9   9  -1   12.24    1.99
  -9   9  -1   15.94    1.85
   9  -9  -1   14.12    2.25
  -9   9  -1   17.02    2.41
  -9   9  -2   34.74    3.37
   9  -9  -2   32.52    3.45
   9   9  -2   31.99    3.28
  -9   9  -2   37.31    4.11
  -9   9  -3   78.13    5.14
   9  -9  -3   75.21    5.47
   9   9  -3   82.41    5.48
  -9   9  -4    1.71    0.84
  -9  -9  -4    2.66    1.23
  -9   9  -5   44.26    3.66
  -9   9  -5   46.62    4.58
  -9  -9  -5   46.43    4.57
 -10   9   2   17.59    1.73
 -10   9   2   18.19    3.02
 -10   9   1    1.84    1.28
 -10   9   1    2.26    0.73
 -10   9   0   29.56    3.44
 -10   9   0   28.94    4.09
 -10   9   0   34.08    2.82
 -10   9  -1    2.86    1.20
  10  -9  -1    2.61    1.15
 -10   9  -1    1.45    1.01
  10   9  -1    2.04    1.01
 -10   9  -2   15.68    2.36
 -10   9  -2   19.46    3.03
  10   9  -2   22.43    2.81
 -10   9  -3    5.08    1.33
 -10   9  -4    3.05    1.10
 -11   9   1   54.18    3.64
 -11   9   1   51.52    5.82
   0 -10   5   -0.32    0.60
   0 -10   4   16.81    2.21
   0 -10   3    0.23    0.36
   0 -10   2  101.64    5.10
   0 -10   1   -0.17    0.39
   0 -10   1   -0.20    0.45
   0 -10   1   -0.16    0.29
   0 -10   0    8.35    1.45
   0 -10   0    6.50    0.93
   0 -10   0    6.96    1.27
   0 -10  -1   -0.31    0.41
   0 -10  -1    0.30    0.28
   0 -10  -1   -0.28    0.58
   0 -10  -2  104.23    6.34
   0 -10  -2   97.10    3.52
   0  10  -2  108.46    6.70
   0 -10  -2  104.32    6.70
   0 -10  -3   -0.47    0.62
   0  10  -3    0.32    0.51
   0 -10  -3   -0.38    0.87
   0  10  -4   20.66    2.51
   0  10  -5   -0.28    0.64
   0  10  -6   45.14    3.68
   1 -10   5   44.56    4.06
  -1 -10   5   48.85    3.98
   1 -10   4   27.94    2.92
  -1 -10   4   34.28    2.96
   1 -10   3   59.63    4.05
  -1 -10   3   52.12    3.56
  -1 -10   2   43.32    2.51
   1 -10   2   42.47    3.15
  -1 -10   2   42.19    2.86
  -1 -10   1   10.05    1.44
  -1 -10   1   15.86    1.75
   1 -10   1   13.59    1.67
   1 -10   1   12.88    1.46
   1 -10   1   15.71    1.68
  -1 -10   1   13.05    1.37
   1 -10   0    6.43    1.19
  -1 -10   0    5.83    1.26
   1 -10   0    5.54    1.25
   1 -10   0    6.15    0.97
  -1 -10   0    5.15    0.79
  -1 -10   0    6.51    1.29
  -1 -10  -1   10.62    1.88
   1 -10  -1   12.31    1.95
  -1 -10  -1   12.85    1.11
  -1 -10  -1   11.03    1.89
   1 -10  -1   13.08    1.83
   1 -10  -2   39.20    3.46
  -1 -10  -2   37.78    1.76
  -1 -10  -2   41.39    1.88
  -1  10  -2   43.20    3.98
  -1 -10  -2   39.28    4.05
   1 -10  -2   33.77    3.59
  -1 -10  -2   33.35    3.68
  -1  10  -3   50.75    2.94
   1 -10  -3   64.61    4.73
  -1 -10  -3   57.59    5.48
   1  10  -3   48.47    4.05
   1 -10  -3   48.90    4.73
  -1  10  -3   51.08    4.19
  -1 -10  -3   49.25    4.77
   1  10  -4   34.00    3.15
  -1  10  -4   28.65    3.00
   1  10  -5   45.01    3.61
  -1  10  -5   46.36    3.84
   1  10  -6   37.21    3.20
  -1  10  -6   32.87    3.27
  -2 -10   5    8.04    1.58
   2 -10   4   65.67    4.84
  -2 -10   4   67.34    4.29
   2 -10   3   11.15    1.79
  -2 -10   3   10.13    1.45
  -2 -10   2   49.81    2.75
   2 -10   2   45.60    3.48
  -2 -10   2   45.87    2.94
   2 -10   1    6.76    1.08
  -2 -10   1    4.47    0.94
   2 -10   1    6.00    1.15
   2 -10   1    5.51    1.12
  -2 -10   1    3.90    0.77
  -2 -10   1    4.97    1.05
  -2 -10   0   19.19    2.40
   2 -10   0   22.83    2.40
   2 -10   0   22.94    2.19
  -2  10   0   18.54    3.11
  -2 -10   0   22.42    1.64
  -2 -10   0   19.17    2.27
   2 -10  -1    3.73    0.98
  -2  10  -1    2.56    1.20
  -2 -10  -1    3.64    1.24
   2 -10  -1    4.57    1.21
  -2  10  -1    5.93    1.77
  -2 -10  -1    4.03    1.33
   2 -10  -2   43.22    3.50
   2  10  -2   42.32    1.80
  -2  10  -2   46.47    4.19
  -2 -10  -2   39.20    4.19
  -2  10  -2   36.42    3.79
  -2 -10  -2   38.81    4.26
   2 -10  -2   40.20    3.89
  -2  10  -3    9.32    1.81
  -2 -10  -3   12.27    1.48
  -2  10  -3   11.38    1.99
  -2 -10  -3   10.31    0.70
  -2 -10  -3    9.57    2.27
  -2  10  -3   12.42    1.39
  -2  10  -4   66.90    4.21
  -2  10  -4   64.72    4.52
   2  10  -4   62.99    4.41
  -2  10  -4   61.87    4.63
   2  10  -5    6.42    1.34
  -2  10  -5    8.55    1.65
  -2  10  -6   11.50    2.02
  -2  10  -7    3.26    1.18
  -3 -10   5   30.53    2.99
  -3 -10   4   16.11    1.97
  -3 -10   3   95.38    4.88
  -3 -10   2   40.57    2.60
  -3 -10   2   40.64    2.72
  -3 -10   1   14.02    1.63
  -3  10   1   13.81    2.89
  -3 -10   1   13.23    1.82
   3 -10   0   25.76    2.58
   3 -10   0   26.03    2.29
  -3  10   0   26.97    3.60
  -3 -10   0   28.34    3.19
  -3 -10   0   27.06    2.67
   3 -10  -1   17.84    2.30
  -3  10  -1   13.83    2.47
   3 -10  -1   11.78    1.67
  -3 -10  -1   10.96    2.02
  -3  10  -1   11.83    2.26
  -3 -10  -1   14.77    2.62
   3 -10  -2   38.45    3.16
  -3 -10  -2   31.88    3.87
  -3 -10  -2   36.35    4.36
  -3  10  -2   37.84    3.81
  -3  10  -2   34.99    3.57
   3 -10  -2   34.52    3.55
  -3  10  -3   97.66    4.74
  -3 -10  -3   99.05    4.97
  -3  10  -3   92.86    5.76
  -3  10  -3   91.62    6.07
  -3  10  -4   12.40    2.13
  -3  10  -4   14.04    1.93
  -3 -10  -4   13.77    1.91
  -3  10  -4   13.68    1.93
  -3  10  -5   33.86    3.38
  -3  10  -5   33.33    2.95
  -3  10  -5   36.26    3.53
  -3  10  -6   40.12    3.79
  -4 -10   5    7.45    1.44
  -4 -10   4   40.29    3.12
  -4 -10   3    0.91    0.30
  -4 -10   3    1.14    0.59
  -4 -10   2   37.14    2.65
  -4 -10   1    4.62    0.91
  -4  10   1    6.36    1.98
  -4 -10   1    3.97    1.19
  -4 -10   0    5.09    1.21
   4 -10   0    3.22    0.96
  -4 -10   0    5.21    1.59
  -4  10   0    4.88    1.60
  -4 -10  -1    5.33    1.45
  -4  10  -1    2.96    1.37
   4 -10  -1    6.85    1.24
   4 -10  -1    4.64    1.25
   4 -10  -1    5.52    0.83
  -4 -10  -1    3.62    1.67
  -4  10  -1    4.50    1.36
   4 -10  -2   34.95    2.49
   4 -10  -2   37.71    3.08
   4  10  -2   34.97    2.25
  -4 -10  -2   37.59    4.82
  -4  10  -2   34.78    3.69
  -4  10  -2   41.29    3.69
   4 -10  -2   37.44    3.65
  -4  10  -3    0.36    0.67
  -4  10  -3    0.95    0.58
  -4  10  -3   -0.29    0.54
  -4 -10  -3    1.67    0.75
  -4  10  -4   39.19    3.29
  -4 -10  -4   36.63    3.27
  -4  10  -4   40.04    3.83
  -4  10  -4   32.97    3.07
  -4 -10  -5    5.98    1.52
  -4  10  -5    4.95    1.37
  -4  10  -5    5.39    1.38
  -4  10  -5    6.26    1.28
  -4  10  -6   33.66    3.70
  -4  10  -6   17.19    2.62
  -5 -10   4   22.16    2.22
  -5 -10   2   44.15    3.19
  -5 -10   1    9.14    1.26
  -5 -10   1    8.18    1.73
  -5  10   1    8.65    2.33
  -5 -10   0    4.86    1.18
   5 -10   0    6.06    1.27
  -5 -10   0    5.29    1.68
  -5  10   0    3.86    1.45
  -5 -10  -1    7.06    1.75
  -5  10  -1    7.82    1.87
   5 -10  -1    7.05    1.46
  -5 -10  -1    8.42    2.39
   5 -10  -1   10.98    1.38
  -5  10  -1    7.28    1.74
  -5  10  -2   39.70    3.65
   5 -10  -2   36.09    2.77
   5  10  -2   35.60    2.55
  -5  10  -2   38.98    4.00
  -5  10  -3    6.05    1.59
  -5  10  -3    9.65    1.43
  -5 -10  -3    7.97    1.36
  -5  10  -3    7.77    1.62
  -5  10  -4   17.80    2.21
  -5  10  -4   18.34    2.68
  -5 -10  -4   17.58    2.33
  -5  10  -4   21.11    2.44
  -5 -10  -5   17.11    2.51
  -5  10  -5   20.41    2.32
  -5  10  -5   19.06    2.70
  -5  10  -5   17.55    2.50
  -5  10  -6   11.76    2.31
  -6  10   3   14.15    3.25
  -6 -10   2    2.55    0.95
  -6 -10   1   25.67    2.04
  -6 -10   1   25.29    3.35
  -6  10   1   29.28    3.91
  -6  10   0    0.51    1.07
  -6 -10   0    0.26    0.48
  -6  10   0    0.84    0.87
  -6  10   0    0.76    0.33
  -6  10  -1   23.43    3.00
   6  10  -1   26.03    2.25
  -6  10  -1   25.40    1.91
  -6 -10  -1   25.99    3.29
   6 -10  -1   24.18    2.35
  -6  10  -2    1.66    1.03
   6 -10  -2    2.28    0.85
  -6  10  -2    2.19    0.62
  -6  10  -2    2.92    1.05
   6  10  -2    1.77    0.66
  -6  10  -3   14.30    2.42
  -6  10  -3    9.34    1.73
  -6  10  -4   26.49    2.74
  -6  10  -4   25.33    2.78
  -6 -10  -4   33.34    3.25
  -6  10  -4   25.66    3.23
  -6  10  -5    3.28    1.18
  -6 -10  -5    2.20    1.08
  -6  10  -5    3.60    0.96
  -6  10  -6    4.76    1.62
  -7  10   3   41.23    5.52
  -7 -10   2   10.52    1.91
  -7  10   1   20.27    1.44
  -7 -10   1   17.54    1.59
  -7  10   0   31.02    3.63
  -7  10   0   28.50    3.95
  -7  10   0   27.35    1.96
  -7 -10   0   30.13    2.86
   7  10  -1   17.93    2.05
   7 -10  -1   16.02    2.04
  -7  10  -1   19.51    1.76
  -7  10  -1   16.60    2.55
   7  10  -2   12.02    1.70
  -7  10  -2   12.69    1.52
   7 -10  -2   15.90    2.13
  -7  10  -2   14.47    2.22
  -7  10  -3   36.14    3.43
   7  10  -3   40.16    3.25
  -7  10  -3   31.32    3.71
  -7  10  -4   13.69    2.41
  -7  10  -4   12.47    2.03
  -7 -10  -4   14.09    2.21
  -7  10  -4   15.04    2.10
  -7  10  -5    5.31    1.54
  -7  10  -5    3.25    1.02
  -8  10   3   18.14    3.58
  -8  10   2    1.14    1.06
  -8  10   2    2.22    0.44
  -8  10   1    7.10    0.93
  -8  10   0   37.57    4.09
  -8  10   0   30.22    4.28
  -8  10   0   42.47    2.66
  -8 -10   0   41.98    3.40
  -8  10  -1    7.42    1.97
   8 -10  -1    8.72    1.68
   8  10  -1    7.99    1.46
  -8  10  -1    8.14    1.23
  -8  10  -1    7.92    1.77
   8 -10  -2    1.80    0.89
   8  10  -2    2.13    0.89
  -8  10  -2    2.38    1.05
  -8  10  -3   16.24    2.75
   8  10  -3   17.09    2.23
  -8  10  -3   16.50    2.37
  -8  10  -4   31.96    3.19
  -8  10  -5    3.13    1.21
  -8  10  -5    4.06    1.21
  -9  10   2   29.49    4.21
  -9  10   1   12.80    1.37
  -9  10   0    4.48    0.94
  -9  10   0    3.03    1.15
  -9  10  -1   14.00    2.75
  -9  10  -1   14.74    2.39
   9  10  -1   10.27    1.78
  -9  10  -2   23.84    3.03
   9  10  -2   35.67    3.34
  -9  10  -2   34.13    4.09
  -9  10  -3   18.41    2.54
   9  10  -3   11.61    1.96
  -9  10  -4   21.03    2.64
  -9  10  -5    4.30    1.25
 -10  10   1   25.29    2.09
 -10  10   0   77.20    4.27
  10  10  -1   21.91    2.74
 -10  10  -1   21.29    2.96
  10  10  -2    3.66    1.28
 -10  10  -2    3.37    1.35
   0 -11   5   57.95    4.67
   0 -11   4   -0.29    0.48
   0 -11   3   38.54    3.22
   0 -11   2   -0.21    0.34
   0 -11   1    8.79    1.29
   0 -11   1    9.07    1.41
   0 -11   1    7.92    1.24
   0 -11   0    0.24    0.54
   0 -11   0   -0.27    0.56
   0 -11   0    0.29    0.33
   0 -11  -1    9.14    1.76
   0 -11  -1    6.97    0.95
   0 -11  -1    5.11    1.28
   0 -11  -2   -0.39    0.73
   0 -11  -2    0.34    0.44
   0  11  -3   37.15    2.01
   0  11  -3   33.32    3.66
   0  11  -4    0.34    0.71
   0  11  -5   46.39    4.03
   0  11  -6    0.62    0.65
   1 -11   5   41.63    4.00
   1 -11   4    2.53    1.02
  -1 -11   4    2.45    0.92
  -1 -11   3   14.56    1.87
   1 -11   3   14.45    2.02
  -1 -11   2    3.23    0.69
   1 -11   2    3.28    0.93
  -1 -11   2    3.85    0.92
  -1 -11   1    6.09    1.09
   1 -11   1    6.14    1.07
  -1 -11   1    4.79    1.04
   1 -11   1    7.38    1.28
   1 -11   1    5.98    1.16
  -1 -11   1    4.02    0.86
   1 -11   0   18.95    2.34
  -1 -11   0   21.63    2.41
   1 -11   0   22.66    2.28
   1 -11   0   23.29    2.01
  -1 -11   0   23.70    1.83
  -1 -11   0   25.98    2.68
   1 -11  -1    8.44    1.51
  -1 -11  -1    4.98    1.36
   1 -11  -1    7.77    1.61
  -1 -11  -1    6.82    0.88
  -1 -11  -1    7.03    1.59
  -1  11  -2    2.61    1.15
  -1 -11  -2    2.43    1.13
   1 -11  -2    3.43    1.23
  -1 -11  -2    3.97    0.55
  -1 -11  -2    3.43    1.23
   1 -11  -2    3.65    1.14
  -1  11  -3   15.18    2.55
  -1  11  -3   16.82    1.33
  -1 -11  -3   19.11    1.61
   1  11  -4    1.67    0.94
  -1  11  -4    2.12    1.09
  -1  11  -4    2.75    0.84
   1  11  -5   47.13    3.91
  -1  11  -5   41.26    3.85
  -1  11  -6   18.94    2.53
  -2 -11   4   10.41    1.70
   2 -11   3    2.11    0.93
  -2 -11   3    3.04    0.97
  -2 -11   2    3.24    0.72
   2 -11   2    2.88    0.98
  -2 -11   2    2.55    0.74
  -2 -11   1   68.38    3.99
  -2 -11   1   62.55    3.93
  -2 -11   1   63.59    3.51
   2 -11   0    0.42    0.52
  -2 -11   0    0.53    0.61
   2 -11   0    0.26    0.43
  -2 -11   0    0.25    0.26
  -2 -11   0    0.29    0.54
   2 -11  -1   58.39    4.52
   2 -11  -1   55.55    3.95
  -2 -11  -1   64.18    2.97
  -2 -11  -1   64.06    4.81
  -2 -11  -1   57.28    4.76
  -2  11  -2    4.27    1.49
  -2 -11  -2    4.61    1.41
  -2 -11  -2    0.87    0.82
  -2 -11  -2    3.10    0.49
  -2 -11  -3    1.52    0.52
  -2  11  -3    2.33    1.14
  -2  11  -3    2.57    0.60
  -2 -11  -3    1.77    0.30
  -2  11  -4    8.05    1.76
  -2 -11  -4   11.80    1.68
  -2  11  -4    8.93    1.39
  -2  11  -5   21.70    2.60
  -2  11  -5   22.39    2.90
  -2  11  -6   12.67    2.18
  -3 -11   4    4.73    1.09
  -3 -11   3   50.53    3.44
  -3 -11   2   11.88    1.36
  -3 -11   2   11.78    1.47
  -3 -11   1   54.42    3.48
  -3 -11   1   51.70    3.73
  -3 -11   1   58.23    3.23
  -3 -11   0    5.81    1.29
   3 -11   0    5.95    1.11
   3 -11   0    4.77    1.17
  -3  11   0    5.96    1.96
  -3 -11   0    4.25    1.37
   3 -11  -1   56.86    4.33
   3 -11  -1   55.16    3.77
  -3  11  -1   47.62    4.81
  -3  11  -1   54.82    5.30
  -3 -11  -1   45.08    4.15
  -3 -11  -1   45.92    4.58
  -3 -11  -2    9.59    2.14
  -3  11  -2   11.63    2.37
  -3  11  -2   13.41    2.40
   3 -11  -2   12.59    1.12
  -3 -11  -2   17.26    2.97
  -3 -11  -3   54.11    3.16
  -3  11  -3   59.30    4.87
  -3  11  -3   47.94    4.52
  -3  11  -4    6.50    1.64
  -3  11  -4    6.66    1.26
  -3  11  -4    6.12    1.56
  -3  11  -5   25.76    3.20
  -3  11  -5   26.80    2.91
  -3  11  -6   38.39    3.91
  -4 -11   4   34.81    3.00
  -4 -11   3   39.43    2.96
  -4 -11   2   14.06    1.60
  -4 -11   1    4.37    0.94
  -4  11   1    7.30    2.20
  -4 -11   1    4.66    1.23
  -4  11   0   21.86    3.44
  -4 -11   0   18.40    2.75
  -4 -11   0   20.72    2.37
  -4  11  -1    5.40    1.83
  -4 -11  -1    4.97    1.41
  -4  11  -1    3.60    1.40
  -4 -11  -1    3.47    1.60
  -4 -11  -2   11.77    2.42
  -4  11  -2   14.98    2.59
   4 -11  -2   15.41    1.49
  -4  11  -2   10.76    2.17
   4  11  -2   14.76    1.17
  -4 -11  -3   39.02    2.76
  -4  11  -3   34.18    3.57
  -4  11  -3   41.38    4.22
  -4  11  -4   32.67    2.84
  -4  11  -4   32.37    3.32
  -4  11  -4   29.07    3.51
  -4  11  -5   21.19    2.93
  -4  11  -5   26.93    2.96
  -5 -11   4    3.29    0.98
  -5 -11   3    6.87    1.26
  -5 -11   2   40.05    2.96
  -5 -11   1   46.11    3.03
  -5  11   1   50.14    5.55
  -5 -11   1   48.50    4.09
  -5 -11   0   -0.26    0.60
  -5 -11   0   -0.45    0.94
  -5  11   0    0.51    1.05
  -5 -11  -1   50.92    5.64
  -5  11  -1   49.84    5.08
  -5 -11  -1   46.31    4.31
  -5  11  -1   48.12    4.70
  -5 -11  -2   34.03    4.07
   5  11  -2   34.50    2.27
  -5  11  -2   31.42    3.88
  -5  11  -2   30.99    3.57
  -5  11  -3    8.16    1.97
   5  11  -3    6.14    1.08
  -5  11  -3    6.27    1.53
  -5  11  -4    3.33    1.35
  -5  11  -4    4.18    1.10
  -5  11  -4    1.61    0.90
  -5  11  -5   42.03    3.79
  -6  11   3    3.90    2.18
  -6 -11   1   28.55    2.21
  -6 -11   1   25.51    3.23
  -6 -11   0    1.03    0.83
  -6 -11   0    2.10    1.20
  -6  11   0    0.99    0.92
  -6  11  -1   27.68    3.90
  -6 -11  -1   28.96    4.66
  -6 -11  -1   29.41    3.53
  -6  11  -1   28.92    3.57
  -6  11  -2   38.84    3.96
   6  11  -2   38.81    2.76
  -6  11  -2   39.27    4.41
  -6  11  -3    4.03    1.39
   6  11  -3    3.43    0.85
  -6  11  -3    2.45    1.04
  -6  11  -4   11.31    2.31
  -6  11  -4   10.74    1.73
  -6  11  -4    9.45    1.79
  -7 -11   1   51.69    5.01
  -7  11   1   52.91    5.63
  -7  11   0   -0.60    1.12
  -7 -11   0   -0.25    0.52
  -7 -11   0    0.59    1.82
  -7  11   0    0.49    0.91
  -7  11   0   -0.12    0.21
  -7  11  -1   38.37    4.21
  -7  11  -1   44.58    2.71
  -7 -11  -1   41.91    4.14
  -7  11  -2    7.86    2.25
  -7  11  -2    3.50    1.26
   7  11  -2    7.41    1.30
  -7  11  -3   65.57    5.04
  -7  11  -3   62.24    5.60
  -7  11  -4    1.00    0.82
  -8  11   1    1.68    1.38
  -8  11   1    0.99    0.38
  -8  11   0   15.57    3.31
  -8  11   0   14.17    1.40
  -8  11   0   14.28    2.82
  -8  11  -1    1.66    1.16
  -8  11  -1    1.39    0.58
  -8  11  -1    3.52    1.36
  -8  11  -2   23.48    3.08
  -8  11  -3   35.68    3.72
  -8  11  -4   21.00    2.73
  -9  11   0    9.77    1.23
  -9  11   0    9.95    2.33
  -9  11  -1   74.74    6.01
  -9  11  -2   27.50    3.40
  -9  11  -3    1.51    0.93
   0 -12   4  114.65    6.64
   0 -12   3   -0.27    0.51
   0 -12   2   90.76    5.15
   0 -12   1   -0.19    0.40
   0 -12   1   -0.23    0.43
   0 -12   1   -0.20    0.46
   0 -12   0   27.96    2.84
   0 -12   0   26.27    2.58
   0 -12   0   25.77    2.14
   0 -12  -1   -0.34    0.70
   0 -12  -1    0.26    0.32
   0 -12  -1   -0.29    0.47
   0  12  -4  104.79    4.66
   0  12  -4   97.57    6.75
   0  12  -5   -0.37    0.59
   1 -12   4    6.82    1.57
  -1 -12   4    7.79    1.57
   1 -12   3   20.11    2.51
  -1 -12   3   17.85    2.17
   1 -12   2   17.24    2.15
  -1 -12   2   17.93    1.69
  -1 -12   2   18.07    2.03
  -1 -12   1   94.48    4.99
   1 -12   1   77.00    4.81
  -1 -12   1   85.35    4.64
   1 -12   1   83.49    4.81
   1 -12   1   86.32    4.57
  -1 -12   1   82.73    4.42
  -1 -12   0   45.68    3.66
   1 -12   0   37.32    3.36
  -1 -12   0   40.36    3.38
   1 -12   0   49.37    3.46
   1 -12   0   38.09    2.83
  -1 -12   0   46.11    2.78
   1 -12  -1   91.37    5.40
  -1 -12  -1   96.83    4.13
  -1 -12  -1   86.13    5.85
  -1 -12  -2   13.83    1.13
  -1  12  -3   15.14    2.69
  -1  12  -4    7.31    1.79
  -1  12  -4    8.76    1.17
   1  12  -5   15.08    2.41
  -1  12  -5   20.03    2.82
  -2 -12   4    3.38    1.05
  -2 -12   3    7.86    1.44
  -2 -12   2   10.73    1.33
  -2 -12   2    8.48    1.34
  -2 -12   1    0.22    0.46
  -2 -12   1    0.64    0.52
  -2 -12   1    0.51    0.42
  -2 -12   0  190.01    8.88
   2 -12   0  196.30    8.34
  -2 -12   0  192.91    7.36
  -2 -12   0  184.30    8.71
  -2 -12  -1   -0.34    0.85
  -2 -12  -1    0.34    0.28
  -2 -12  -1    1.44    0.95
  -2 -12  -2    7.29    0.81
  -2  12  -3    4.93    1.73
  -2  12  -4    3.36    1.30
  -2  12  -4    6.45    1.07
  -2  12  -5    1.61    1.18
  -2  12  -6   75.25    5.71
  -3 -12   4   19.64    2.38
  -3 -12   3   14.02    1.82
  -3 -12   2   17.69    1.76
  -3 -12   2   21.43    2.07
  -3 -12   1   23.88    2.26
  -3 -12   1   27.37    2.60
  -3 -12   1   22.95    2.04
  -3 -12   0   13.48    1.93
   3 -12   0   12.93    1.70
  -3 -12   0   11.22    1.28
  -3 -12   0   10.35    1.89
  -3  12  -1   24.60    3.76
  -3 -12  -1   30.29    1.96
  -3 -12  -1   25.88    3.09
  -3 -12  -1   26.93    3.39
  -3  12  -2   11.99    2.63
  -3  12  -2   14.92    2.85
  -3 -12  -2   17.34    1.28
  -3  12  -3    8.14    2.00
   3  12  -3   10.37    0.84
  -3  12  -4   20.80    3.08
  -3  12  -5   22.17    3.06
  -4 -12   3    2.22    0.75
  -4 -12   2   20.99    2.06
  -4 -12   1    5.91    1.09
  -4 -12   1    6.11    1.41
  -4  12   0   36.15    4.74
  -4 -12   0   38.12    3.30
  -4 -12   0   32.47    3.58
  -4 -12  -1    5.69    1.57
  -4  12  -1    8.50    2.22
  -4  12  -2   18.18    3.10
  -4  12  -2   22.92    3.38
  -4  12  -3    1.41    1.08
  -4  12  -3    3.92    1.35
  -4  12  -4   61.58    5.12
  -4  12  -4   59.02    5.38
  -5 -12   3   20.51    2.17
  -5 -12   1   53.01    3.32
  -5  12   1   50.51    6.07
  -5 -12   1   53.81    4.29
  -5  12   0   49.87    5.54
  -5 -12   0   53.52    4.92
  -5 -12   0   49.31    3.81
  -5  12  -1   50.46    5.51
  -5  12  -1   45.00    4.96
  -5 -12  -1   48.89    4.35
  -5  12  -2   12.93    2.78
  -5  12  -2    6.48    2.04
  -5  12  -3   19.46    3.18
  -5  12  -3   18.66    2.90
  -5  12  -4   14.93    2.44
  -6  12   2   19.74    3.91
  -6  12   1    7.27    2.23
  -6 -12   0  108.50    7.89
  -6  12   0  113.58    8.44
  -6  12  -1    8.18    2.33
  -6 -12  -1   12.06    2.20
  -6  12  -1   11.78    2.63
  -6  12  -2   29.39    4.09
  -6  12  -2   26.99    3.60
  -6  12  -3   16.60    2.66
  -6  12  -4    0.39    0.72
  -7  12   1   16.29    3.36
  -7  12   0   12.05    2.69
  -7  12  -1   22.24    3.45
  -7  12  -2   13.61    2.56
  -7  12  -3    0.83    0.77
  -7  12  -4   27.72    3.38
  -8  12  -1   26.89    3.74
  -8  12  -2    8.71    2.15
  -8  12  -3    7.65    1.95
  -8  12  -4   37.21    3.96
   0 -13   3   71.69    4.92
   0 -13   2    0.52    0.64
   0 -13   1   21.48    2.16
   0 -13   1   24.12    2.36
   0 -13   0    0.25    0.47
   0 -13   0   -0.19    0.43
   0 -13  -1   19.07    1.72
   1 -13   3   33.86    3.39
  -1 -13   3   41.11    3.46
   1 -13   2   66.65    4.60
  -1 -13   2   67.65    4.31
  -1 -13   1   31.91    2.90
  -1 -13   1   36.46    2.90
   1 -13   1   33.75    3.05
  -1 -13   1   40.57    2.96
   1 -13   1   40.74    2.98
  -1 -13   0   11.77    1.80
  -1 -13   0    8.35    1.25
  -1 -13  -1   33.74    2.28
  -1  13  -4    2.81    1.24
  -1  13  -5   16.10    2.70
  -2 -13   3    0.26    0.55
  -2 -13   2   -0.45    0.59
  -2 -13   1   41.33    3.22
  -2 -13   1   41.22    3.19
  -2 -13   1   43.66    3.04
  -2 -13   0   -0.28    0.59
  -2 -13   0   -0.16    0.39
  -2 -13   0   -0.29    0.65
  -2 -13  -1   39.96    2.45
  -2  13  -3    0.52    1.08
  -2  13  -4   16.68    2.88
  -2  13  -5   -0.45    0.94
  -3 -13   3   14.80    1.99
  -3 -13   2   32.22    2.75
  -3 -13   1   31.52    2.70
  -3 -13   1   32.96    2.91
  -3 -13   1   31.93    2.55
  -3 -13   0   21.94    2.53
  -3 -13   0   19.23    1.79
  -3 -13   0   19.76    2.56
  -3 -13  -1   33.48    2.19
  -3  13  -3   11.00    2.51
  -3  13  -4   17.17    2.96
  -4 -13   3   53.55    3.87
  -4 -13   2   14.10    1.78
  -4 -13   1   10.98    1.46
  -4 -13   0   22.69    1.94
  -4 -13   0   19.40    2.39
  -4  13  -1   12.20    2.79
  -4 -13  -1    8.49    1.12
  -4  13  -2   12.23    2.85
  -4  13  -2   16.77    3.19
  -4  13  -3   41.13    4.66
  -4  13  -3   33.65    4.38
  -5 -13   2   31.69    2.70
  -5  13   0    0.67    1.08
  -5  13  -1   24.53    3.92
  -5  13  -2   28.87    4.11
  -5  13  -2   42.96    5.12
  -5  13  -3   48.63    5.15
  -6  13   0    0.66    1.23
  -6  13  -1   30.74    4.39
  -6  13  -2   11.77    2.75
  -6  13  -3    5.43    1.79
  -7  13  -1   28.25    4.11
  -7  13  -2   15.98    2.97
  -7  13  -3   15.63    2.84
   0 -14   3    0.32    0.67
   0 -14   2    9.65    1.77
   0 -14   1   -0.24    0.46
   1 -14   3   29.91    3.29
  -1 -14   3   26.88    2.97
   1 -14   2    7.99    1.61
  -1 -14   2    8.07    1.54
  -1 -14   1   10.19    1.58
  -1 -14   0    3.23    0.85
  -2 -14   2   28.83    2.76
  -2 -14   1    1.07    0.53
  -2 -14   0   58.71    3.56
  -3 -14   2    4.53    1.14
  -3 -14   1    0.82    0.54
  -3 -14   0   25.71    2.17
  -4 -14   2    5.58    1.22
  -4 -14   1    1.61    0.70
  -4 -14   0   33.05    2.53
  -5 -14   1    2.83    0.85
  -5 -14   0    0.18    0.33
  -5  14  -1    1.35    1.89
  -5  14  -2   10.62    2.87
  -5  14  -3   34.70    4.58
  -6  14  -2    8.02    2.45
  -6  14  -3   18.28    3.28
   0 -15   2    0.31    0.50
  -1 -15   2   13.05    2.07
  -2 -15   2    1.37    0.89
   0   0   0    0.00    0.00
;
_shelx_hkl_checksum              97950
loop_
_space_group_symop_operation_xyz
'x, y, z'
'-x, -y, z'
'-x+1/2, y+1/2, z+1/2'
'x+1/2, -y+1/2, z+1/2'
loop_
_atom_site_label
_atom_site_type_symbol
_atom_site_fract_x
_atom_site_fract_y
_atom_site_fract_z
_atom_site_U_iso_or_equiv
_atom_site_adp_type
_atom_site_occupancy
_atom_site_site_symmetry_order
_atom_site_calc_flag
_atom_site_refinement_flags_posn
_atom_site_refinement_flags_adp
_atom_site_refinement_flags_occupancy
Ca1 Ca 0.74369(7) 0.52902(6) 0.51189(15) 0.00616(18) Uani 1 1 d . . .
Ca2 Ca 0.46858(7) 0.24355(7) 1.18509(15) 0.00562(17) Uani 1 1 d . . .
Cl1 Cl 0.500000 0.500000 0.3518(3) 0.0089(3) Uani 1 2 d S T P
Cl2 Cl 0.500000 0.000000 1.1134(2) 0.0084(3) Uani 1 2 d S T P
O3 O 0.7128(3) 0.3969(2) -0.1835(5) 0.0064(6) Uani 1 1 d . . .
O5 O 0.7990(3) 0.2981(2) 0.4282(4) 0.0048(6) Uani 1 1 d . . .
O6 O 0.5993(3) 0.2136(2) 0.4791(5) 0.0069(6) Uani 1 1 d . . .
O2 O 0.7292(3) 0.5919(2) -0.0959(4) 0.0061(6) Uani 1 1 d . . .
O4 O 0.6956(3) 0.2485(2) 0.0984(5) 0.0046(6) Uani 1 1 d . . .
O9 O 0.4018(3) 0.2212(2) 0.5769(5) 0.0071(6) Uani 1 1 d . . .
O8 O 0.5520(3) 0.2535(2) 0.8396(5) 0.0059(6) Uani 1 1 d . . .
O7 O 0.7553(3) 0.1910(2) 0.7444(5) 0.0044(6) Uani 1 1 d . . .
O1 O 0.7766(3) 0.4447(2) 0.1687(5) 0.0062(6) Uani 1 1 d . . .
B4 B 0.7291(4) 0.1985(3) 0.5134(8) 0.0047(8) Uani 1 1 d . . .
B3 B 0.7934(4) 0.3135(4) 0.2000(8) 0.0053(8) Uani 1 1 d . . .
B2 B 0.6818(5) 0.2726(4) -0.1253(7) 0.0062(9) Uani 1 1 d . . .
B1 B 0.7407(4) 0.4774(4) -0.0288(8) 0.0066(10) Uani 1 1 d . . .
B5 B 0.5186(4) 0.2281(4) 0.6385(8) 0.0077(10) Uani 1 1 d . . .
loop_
_atom_site_aniso_label
_atom_site_aniso_U_11
_atom_site_aniso_U_22
_atom_site_aniso_U_33
_atom_site_aniso_U_23
_atom_site_aniso_U_13
_atom_site_aniso_U_12
Ca1 0.0070(4) 0.0066(3) 0.0049(4) 0.0002(3) -0.0002(3) -0.0014(3)
Ca2 0.0051(4) 0.0068(3) 0.0050(3) -0.0002(3) 0.0004(3) 0.0007(3)
Cl1 0.0063(7) 0.0090(6) 0.0114(7) 0.000 0.000 -0.0012(5)
Cl2 0.0067(6) 0.0058(5) 0.0127(6) 0.000 0.000 -0.0003(5)
O3 0.0089(15) 0.0051(11) 0.0052(14) -0.0007(11) 0.0005(12) 0.0004(10)
O5 0.0070(15) 0.0041(11) 0.0034(14) 0.0005(11) -0.0008(11) -0.0015(10)
O6 0.0043(14) 0.0097(12) 0.0067(15) 0.0002(11) 0.0009(12) -0.0002(10)
O2 0.0098(15) 0.0038(11) 0.0046(14) -0.0003(10) -0.0027(11) -0.0008(10)
O4 0.0050(15) 0.0049(12) 0.0041(13) -0.0002(10) 0.0016(12) -0.0004(10)
O9 0.0045(15) 0.0117(12) 0.0049(14) 0.0007(11) 0.0008(11) -0.0030(11)
O8 0.0039(16) 0.0075(13) 0.0062(14) -0.0002(11) -0.0001(13) 0.0010(10)
O7 0.0057(14) 0.0049(12) 0.0027(13) -0.0011(10) 0.0010(11) 0.0004(11)
O1 0.0100(15) 0.0030(12) 0.0055(14) 0.0009(12) -0.0006(12) -0.0020(10)
B4 0.007(2) 0.0045(17) 0.002(2) 0.0010(18) 0.0003(18) 0.0023(15)
B3 0.006(2) 0.006(2) 0.0039(19) -0.0019(17) 0.0014(18) -0.0009(17)
B2 0.007(3) 0.0057(18) 0.006(2) -0.0015(16) -0.0027(17) -0.0018(16)
B1 0.005(2) 0.0064(18) 0.008(3) 0.0039(18) 0.0029(17) 0.0001(17)
B5 0.008(2) 0.0041(19) 0.011(3) 0.0038(17) 0.0027(19) 0.0015(16)
loop_
_atom_type_symbol
_atom_type_description
_atom_type_scat_dispersion_real
_atom_type_scat_dispersion_imag
_atom_type_scat_source
B B 0.0013 0.0007 'International Tables Vol C Tables 4.2.6.8 and 6.1.1.4'
Ca Ca 0.2262 0.3064 'International Tables Vol C Tables 4.2.6.8 and 6.1.1.4'
Cl Cl 0.1484 0.1585 'International Tables Vol C Tables 4.2.6.8 and 6.1.1.4'
O O 0.0106 0.0060 'International Tables Vol C Tables 4.2.6.8 and 6.1.1.4'
loop_
_geom_angle_atom_site_label_1
_geom_angle_atom_site_label_2
_geom_angle_atom_site_label_3
_geom_angle
_geom_angle_site_symmetry_1
_geom_angle_site_symmetry_3
O1 Ca1 O3 119.23(9) . 1_556
O1 Ca1 O7 71.18(9) . 3_654
O3 Ca1 O7 167.75(10) 1_556 3_654
O1 Ca1 O2 170.72(10) . 1_556
O3 Ca1 O2 53.67(8) 1_556 1_556
O7 Ca1 O2 116.68(9) 3_654 1_556
O1 Ca1 O4 121.57(9) . 3_655
O3 Ca1 O4 116.48(10) 1_556 3_655
O7 Ca1 O4 56.41(9) 3_654 3_655
O2 Ca1 O4 63.71(9) 1_556 3_655
O1 Ca1 O5 53.91(9) . .
O3 Ca1 O5 66.66(8) 1_556 .
O7 Ca1 O5 124.69(9) 3_654 .
O2 Ca1 O5 117.55(9) 1_556 .
O4 Ca1 O5 151.97(9) 3_655 .
O1 Ca1 Cl1 77.59(8) . .
O3 Ca1 Cl1 94.14(8) 1_556 .
O7 Ca1 Cl1 81.48(7) 3_654 .
O2 Ca1 Cl1 107.73(8) 1_556 .
O4 Ca1 Cl1 114.72(7) 3_655 .
O5 Ca1 Cl1 92.09(7) . .
O1 Ca1 Cl2 90.21(8) . 3_654
O3 Ca1 Cl2 84.18(8) 1_556 3_654
O7 Ca1 Cl2 102.97(8) 3_654 3_654
O2 Ca1 Cl2 83.28(7) 1_556 3_654
O4 Ca1 Cl2 79.01(7) 3_655 3_654
O5 Ca1 Cl2 73.55(7) . 3_654
Cl1 Ca1 Cl2 165.03(4) . 3_654
O1 Ca1 B1 144.13(11) . 1_556
O3 Ca1 B1 27.35(10) 1_556 1_556
O7 Ca1 B1 144.09(11) 3_654 1_556
O2 Ca1 B1 27.51(10) 1_556 1_556
O4 Ca1 B1 89.14(11) 3_655 1_556
O5 Ca1 B1 90.23(10) . 1_556
Cl1 Ca1 B1 107.86(10) . 1_556
Cl2 Ca1 B1 77.06(10) 3_654 1_556
O1 Ca1 B2 93.47(11) . 3_655
O3 Ca1 B2 145.16(12) 1_556 3_655
O7 Ca1 B2 29.50(11) 3_654 3_655
O2 Ca1 B2 92.42(11) 1_556 3_655
O4 Ca1 B2 28.82(11) 3_655 3_655
O5 Ca1 B2 139.15(12) . 3_655
Cl1 Ca1 B2 105.13(10) . 3_655
Cl2 Ca1 B2 84.01(10) 3_654 3_655
B1 Ca1 B2 117.82(13) 1_556 3_655
O1 Ca1 B3 26.95(11) . .
O3 Ca1 B3 92.57(11) 1_556 .
O7 Ca1 B3 98.11(11) 3_654 .
O2 Ca1 B3 144.67(11) 1_556 .
O4 Ca1 B3 143.70(11) 3_655 .
O5 Ca1 B3 27.13(10) . .
Cl1 Ca1 B3 82.08(9) . .
Cl2 Ca1 B3 83.13(9) 3_654 .
B1 Ca1 B3 117.29(12) 1_556 .
B2 Ca1 B3 118.30(12) 3_655 .
O1 Ca1 Ca2 83.16(7) . 2_664
O3 Ca1 Ca2 134.43(7) 1_556 2_664
O7 Ca1 Ca2 36.18(7) 3_654 2_664
O2 Ca1 Ca2 106.09(6) 1_556 2_664
O4 Ca1 Ca2 70.09(7) 3_655 2_664
O5 Ca1 Ca2 129.62(7) . 2_664
Cl1 Ca1 Ca2 49.54(2) . 2_664
Cl2 Ca1 Ca2 138.33(3) 3_654 2_664
B1 Ca1 Ca2 128.07(10) 1_556 2_664
B2 Ca1 Ca2 55.61(10) 3_655 2_664
B3 Ca1 Ca2 105.73(9) . 2_664
O8 Ca2 O6 118.80(11) . 1_556
O8 Ca2 O7 119.53(10) . 4_455
O6 Ca2 O7 120.26(11) 1_556 4_455
O8 Ca2 O5 73.39(10) . 4_455
O6 Ca2 O5 158.10(9) 1_556 4_455
O7 Ca2 O5 56.24(9) 4_455 4_455
O8 Ca2 O4 54.68(10) . 1_556
O6 Ca2 O4 64.50(9) 1_556 1_556
O7 Ca2 O4 161.43(9) 4_455 1_556
O5 Ca2 O4 126.75(10) 4_455 1_556
O8 Ca2 O9 173.06(10) . 1_556
O6 Ca2 O9 54.58(10) 1_556 1_556
O7 Ca2 O9 67.40(10) 4_455 1_556
O5 Ca2 O9 112.14(10) 4_455 1_556
O4 Ca2 O9 118.95(9) 1_556 1_556
O8 Ca2 Cl2 81.33(6) . .
O6 Ca2 Cl2 84.85(7) 1_556 .
O7 Ca2 Cl2 115.39(6) 4_455 .
O5 Ca2 Cl2 78.98(6) 4_455 .
O4 Ca2 Cl2 82.25(6) 1_556 .
O9 Ca2 Cl2 95.41(7) 1_556 .
O8 Ca2 B5 145.88(13) . 1_556
O6 Ca2 B5 27.40(12) 1_556 1_556
O7 Ca2 B5 93.01(12) 4_455 1_556
O5 Ca2 B5 139.29(12) 4_455 1_556
O4 Ca2 B5 91.22(12) 1_556 1_556
O9 Ca2 B5 27.82(12) 1_556 1_556
Cl2 Ca2 B5 94.35(9) . 1_556
O8 Ca2 B4 90.42(12) . 4_455
O6 Ca2 B4 150.40(12) 1_556 4_455
O7 Ca2 B4 30.23(11) 4_455 4_455
O5 Ca2 B4 29.78(10) 4_455 4_455
O4 Ca2 B4 143.23(11) 1_556 4_455
O9 Ca2 B4 96.37(12) 1_556 4_455
Cl2 Ca2 B4 105.67(8) . 4_455
B5 Ca2 B4 123.02(14) 1_556 4_455
O8 Ca2 Cl1 102.90(7) . 1_556
O6 Ca2 Cl1 78.41(7) 1_556 1_556
O7 Ca2 Cl1 77.45(6) 4_455 1_556
O5 Ca2 Cl1 118.32(6) 4_455 1_556
O4 Ca2 Cl1 86.61(6) 1_556 1_556
O9 Ca2 Cl1 78.45(7) 1_556 1_556
Cl2 Ca2 Cl1 162.70(4) . 1_556
B5 Ca2 Cl1 72.62(9) 1_556 1_556
B4 Ca2 Cl1 91.16(8) 4_455 1_556
O8 Ca2 B2 27.54(12) . 1_556
O6 Ca2 B2 92.13(11) 1_556 1_556
O7 Ca2 B2 141.99(11) 4_455 1_556
O5 Ca2 B2 100.86(12) 4_455 1_556
O4 Ca2 B2 27.63(11) 1_556 1_556
O9 Ca2 B2 146.42(11) 1_556 1_556
Cl2 Ca2 B2 84.59(8) . 1_556
B5 Ca2 B2 118.60(13) 1_556 1_556
B4 Ca2 B2 116.03(12) 4_455 1_556
Cl1 Ca2 B2 91.67(8) 1_556 1_556
O8 Ca2 Ca1 131.77(6) . 2_666
O6 Ca2 Ca1 92.94(7) 1_556 2_666
O7 Ca2 Ca1 35.66(7) 4_455 2_666
O5 Ca2 Ca1 90.37(7) 4_455 2_666
O4 Ca2 Ca1 131.62(6) 1_556 2_666
O9 Ca2 Ca1 53.79(7) 1_556 2_666
Cl2 Ca2 Ca1 140.75(4) . 2_666
B5 Ca2 Ca1 69.58(9) 1_556 2_666
B4 Ca2 Ca1 61.23(9) 4_455 2_666
Cl1 Ca2 Ca1 45.777(19) 1_556 2_666
B2 Ca2 Ca1 134.65(8) 1_556 2_666
Ca1 Cl1 Ca1 139.51(7) . 2_665
Ca1 Cl1 Ca2 109.12(2) . 1_554
Ca1 Cl1 Ca2 84.69(2) 2_665 1_554
Ca1 Cl1 Ca2 84.69(2) . 2_664
Ca1 Cl1 Ca2 109.12(2) 2_665 2_664
Ca2 Cl1 Ca2 140.30(7) 1_554 2_664
Ca2 Cl2 Ca2 161.44(7) . 2_655
Ca2 Cl2 Ca1 91.30(2) . 4_455
Ca2 Cl2 Ca1 92.72(2) 2_655 4_455
Ca2 Cl2 Ca1 92.72(2) . 3_645
Ca2 Cl2 Ca1 91.30(2) 2_655 3_645
Ca1 Cl2 Ca1 154.91(7) 4_455 3_645
B1 O3 B2 120.1(3) . .
B1 O3 Ca1 97.1(2) . 1_554
B2 O3 Ca1 142.8(2) . 1_554
B3 O5 B4 115.6(3) . .
B3 O5 Ca2 133.5(3) . 4_554
B4 O5 Ca2 91.2(2) . 4_554
B3 O5 Ca1 93.9(2) . .
B4 O5 Ca1 122.6(2) . .
Ca2 O5 Ca1 102.81(10) 4_554 .
B5 O6 B4 123.8(3) . .
B5 O6 Ca2 98.8(3) . 1_554
B4 O6 Ca2 137.0(2) . 1_554
B1 O2 B4 127.0(3) . 3_654
B1 O2 Ca1 91.8(2) . 1_554
B4 O2 Ca1 131.2(2) 3_654 1_554
B2 O4 B3 114.4(3) . .
B2 O4 Ca2 96.1(3) . 1_554
B3 O4 Ca2 130.4(2) . 1_554
B2 O4 Ca1 90.1(2) . 3_644
B3 O4 Ca1 111.8(2) . 3_644
Ca2 O4 Ca1 105.99(10) 1_554 3_644
B5 O9 B3 130.0(4) . 4_455
B5 O9 Ca2 89.5(3) . 1_554
B3 O9 Ca2 139.1(3) 4_455 1_554
B5 O8 B2 116.1(4) . 1_556
B5 O8 Ca2 138.1(3) . .
B2 O8 Ca2 104.7(3) 1_556 .
B2 O7 B4 113.5(3) 1_556 .
B2 O7 Ca1 94.7(2) 1_556 3_645
B4 O7 Ca1 135.0(2) . 3_645
B2 O7 Ca2 115.0(2) 1_556 4_554
B4 O7 Ca2 91.3(2) . 4_554
Ca1 O7 Ca2 108.16(11) 3_645 4_554
B1 O1 B3 115.1(3) . .
B1 O1 Ca1 132.5(2) . .
B3 O1 Ca1 106.9(2) . .
O2 B4 O5 106.7(3) 3_645 .
O2 B4 O6 109.8(3) 3_645 .
O5 B4 O6 112.3(3) . .
O2 B4 O7 110.6(3) 3_645 .
O5 B4 O7 107.3(3) . .
O6 B4 O7 110.1(3) . .
O2 B4 Ca2 93.8(2) 3_645 4_554
O5 B4 Ca2 59.02(19) . 4_554
O6 B4 Ca2 156.4(3) . 4_554
O7 B4 Ca2 58.42(19) . 4_554
O5 B3 O4 114.0(3) . .
O5 B3 O9 116.8(4) . 4_554
O4 B3 O9 104.2(3) . 4_554
O5 B3 O1 104.7(3) . .
O4 B3 O1 110.0(3) . .
O9 B3 O1 106.9(3) 4_554 .
O5 B3 Ca1 58.98(19) . .
O4 B3 Ca1 121.7(3) . .
O9 B3 Ca1 131.7(3) 4_554 .
O1 B3 Ca1 46.11(18) . .
O4 B2 O8 102.9(4) . 1_554
O4 B2 O7 111.5(3) . 1_554
O8 B2 O7 111.6(3) 1_554 1_554
O4 B2 O3 113.1(3) . .
O8 B2 O3 109.1(3) 1_554 .
O7 B2 O3 108.6(3) 1_554 .
O4 B2 Ca1 61.10(19) . 3_644
O8 B2 Ca1 100.4(2) 1_554 3_644
O7 B2 Ca1 55.78(18) 1_554 3_644
O3 B2 Ca1 150.4(3) . 3_644
O4 B2 Ca2 56.3(2) . 1_554
O8 B2 Ca2 47.8(2) 1_554 1_554
O7 B2 Ca2 135.2(3) 1_554 1_554
O3 B2 Ca2 115.7(3) . 1_554
Ca1 B2 Ca2 86.18(12) 3_644 1_554
O1 B1 O2 124.6(4) . .
O1 B1 O3 122.7(3) . .
O2 B1 O3 112.6(4) . .
O1 B1 Ca1 161.5(3) . 1_554
O2 B1 Ca1 60.7(2) . 1_554
O3 B1 Ca1 55.54(19) . 1_554
O8 B5 O6 122.5(4) . .
O8 B5 O9 122.9(4) . .
O6 B5 O9 114.6(4) . .
O8 B5 Ca2 163.5(3) . 1_554
O6 B5 Ca2 53.8(2) . 1_554
O9 B5 Ca2 62.7(2) . 1_554
loop_
_geom_bond_atom_site_label_1
_geom_bond_atom_site_label_2
_geom_bond_distance
_geom_bond_site_symmetry_2
Ca1 O1 2.390(3) .
Ca1 O3 2.453(3) 1_556
Ca1 O7 2.484(3) 3_654
Ca1 O2 2.575(3) 1_556
Ca1 O4 2.621(3) 3_655
Ca1 O5 2.725(3) .
Ca1 Cl1 2.9136(10) .
Ca1 Cl2 2.9434(9) 3_654
Ca1 B1 2.951(5) 1_556
Ca1 B2 2.993(4) 3_655
Ca1 B3 3.172(5) .
Ca1 Ca2 4.0482(12) 2_664
Ca2 O8 2.369(3) .
Ca2 O6 2.380(3) 1_556
Ca2 O7 2.515(3) 4_455
Ca2 O5 2.531(3) 4_455
Ca2 O4 2.587(3) 1_556
Ca2 O9 2.590(3) 1_556
Ca2 Cl2 2.8019(8) .
Ca2 B5 2.915(5) 1_556
Ca2 B4 2.951(5) 4_455
Ca2 Cl1 3.0933(10) 1_556
Ca2 B2 3.094(5) 1_556
O3 B1 1.367(5) .
O3 B2 1.488(5) .
O5 B3 1.450(6) .
O5 B4 1.466(5) .
O6 B5 1.357(6) .
O6 B4 1.471(5) .
O2 B1 1.364(5) .
O2 B4 1.460(5) 3_654
O4 B2 1.443(5) .
O4 B3 1.459(5) .
O9 B5 1.360(6) .
O9 B3 1.487(5) 4_455
O8 B5 1.351(6) .
O8 B2 1.478(6) 1_556
O7 B2 1.479(5) 1_556
O7 B4 1.486(6) .
O1 B1 1.358(6) .
O1 B3 1.503(5) .
