#------------------------------------------------------------------------------
#$Date: 2019-11-08 00:30:46 +0200 (Fri, 08 Nov 2019) $
#$Revision: 224274 $
#$URL: file:///home/coder/svn-repositories/cod/cif/7/04/92/7049230.cif $
#------------------------------------------------------------------------------
#
# This file is available in the Crystallography Open Database (COD),
# http://www.crystallography.net/
#
# All data on this site have been placed in the public domain by the
# contributors.
#
data_7049230
loop_
_publ_author_name
'Netzsch, Philip'
'H\"ammer, Matthias'
'Gross, Peter'
'Bariss, Harijs'
'Block, Theresa'
'Heletta, Lukas'
'P\"ottgen, Rainer'
'Bruns, J\"orn'
'Huppertz, Hubert'
'H\"oppe, Henning A'
_publ_section_title
;
 RE<sub>2</sub>[B<sub>2</sub>(SO<sub>4</sub>)<sub>6</sub>] (RE = Y, La-Nd,
 Sm, Eu, Tb-Lu): a silicate-analogous host structure with weak
 coordination behaviour.
;
_journal_issue                   13
_journal_name_full
'Dalton transactions (Cambridge, England : 2003)'
_journal_page_first              4387
_journal_page_last               4397
_journal_paper_doi               10.1039/c9dt00445a
_journal_volume                  48
_journal_year                    2019
_chemical_formula_moiety         'Sm B O12 S3'
_chemical_formula_sum            'B O12 S3 Sm'
_chemical_formula_weight         449.34
_chemical_name_common            Samariumborosulfate
_chemical_name_systematic        samarium-trissulfatoborate
_space_group_crystal_system      monoclinic
_space_group_IT_number           15
_space_group_name_Hall           '-C 2yc'
_space_group_name_H-M_alt        'C 1 2/c 1'
_symmetry_space_group_name_Hall  '-C 2yc'
_symmetry_space_group_name_H-M   'C 1 2/c 1'
_audit_creation_method
;
Olex2 1.2
(compiled 2015.01.26 svn.r3150 for OlexSys, GUI svn.r4998)
;
_cell_angle_alpha                90
_cell_angle_beta                 93.5718(12)
_cell_angle_gamma                90
_cell_formula_units_Z            8
_cell_length_a                   13.6077(6)
_cell_length_b                   11.4725(4)
_cell_length_c                   11.1229(4)
_cell_measurement_reflns_used    4853
_cell_measurement_temperature    173(2)
_cell_measurement_theta_max      37.84
_cell_measurement_theta_min      2.32
_cell_volume                     1733.07(12)
_computing_cell_refinement       'SAINT v8.34A (Bruker, 2013)'
_computing_data_collection       'Bruker Apex II'
_computing_data_reduction        'SAINT v8.34A (Bruker, 2013)'
_computing_molecular_graphics    'Olex2 (Dolomanov et al., 2009)'
_computing_publication_material  'Olex2 (Dolomanov et al., 2009)'
_computing_structure_refinement  'ShelXL (Sheldrick, 2008)'
_computing_structure_solution    'ShelXS (Sheldrick, 2008)'
_diffrn_ambient_temperature      173.0
_diffrn_detector_area_resol_mean 10.4
_diffrn_measured_fraction_theta_full 1.000
_diffrn_measured_fraction_theta_max 1.000
_diffrn_measurement_device_type  'Bruker D8 QUEST PHOTON 100'
_diffrn_measurement_method       '\f and \w scans'
_diffrn_radiation_type           MoK\a
_diffrn_radiation_wavelength     0.71073
_diffrn_reflns_av_R_equivalents  0.0333
_diffrn_reflns_av_unetI/netI     0.0202
_diffrn_reflns_Laue_measured_fraction_full 1.000
_diffrn_reflns_Laue_measured_fraction_max 1.000
_diffrn_reflns_limit_h_max       23
_diffrn_reflns_limit_h_min       -23
_diffrn_reflns_limit_k_max       19
_diffrn_reflns_limit_k_min       -19
_diffrn_reflns_limit_l_max       19
_diffrn_reflns_limit_l_min       -18
_diffrn_reflns_number            31611
_diffrn_reflns_point_group_measured_fraction_full 1.000
_diffrn_reflns_point_group_measured_fraction_max 1.000
_diffrn_reflns_theta_full        25.242
_diffrn_reflns_theta_max         37.844
_diffrn_reflns_theta_min         2.324
_diffrn_source                   'Incoatec Microfocus'
_exptl_absorpt_coefficient_mu    7.567
_exptl_absorpt_correction_T_max  0.7474
_exptl_absorpt_correction_T_min  0.5636
_exptl_absorpt_correction_type   multi-scan
_exptl_absorpt_process_details   'SADABS-2014/5 (Sheldrick)'
_exptl_crystal_colour            colorless
_exptl_crystal_density_diffrn    3.444
_exptl_crystal_density_method    'not measured'
_exptl_crystal_description       block
_exptl_crystal_F_000             1688
_exptl_crystal_size_max          0.11
_exptl_crystal_size_mid          0.07
_exptl_crystal_size_min          0.06
_exptl_transmission_factor_max   0.7474
_exptl_transmission_factor_min   0.5636
_refine_diff_density_max         0.755
_refine_diff_density_min         -2.225
_refine_diff_density_rms         0.200
_refine_ls_extinction_method     none
_refine_ls_goodness_of_fit_ref   1.098
_refine_ls_hydrogen_treatment    undef
_refine_ls_matrix_type           full
_refine_ls_number_parameters     154
_refine_ls_number_reflns         4675
_refine_ls_number_restraints     0
_refine_ls_restrained_S_all      1.098
_refine_ls_R_factor_all          0.0228
_refine_ls_R_factor_gt           0.0197
_refine_ls_shift/su_max          0.001
_refine_ls_shift/su_mean         0.000
_refine_ls_structure_factor_coef Fsqd
_refine_ls_weighting_details
'w=1/[\s^2^(Fo^2^)+(0.0222P)^2^+3.8755P] where P=(Fo^2^+2Fc^2^)/3'
_refine_ls_weighting_scheme      calc
_refine_ls_wR_factor_gt          0.0448
_refine_ls_wR_factor_ref         0.0458
_reflns_Friedel_coverage         0.000
_reflns_number_gt                4351
_reflns_number_total             4675
_reflns_threshold_expression     'I > 2\s(I)'
_cod_data_source_file            c9dt00445a12.cif
_cod_data_source_block           SmBS3O12
_cod_depositor_comments
'Adding full bibliography for 7049219--7049233.cif.'
_cod_original_formula_sum        'B O12 S3 Sm '
_cod_database_code               7049230
_shelxl_version_number           2013-4
_shelx_space_group_comment
;
The symmetry employed for this shelxl refinement is uniquely defined
by the following loop, which should always be used as a source of
symmetry information in preference to the above space-group names.
They are only intended as comments.
;
_olex2_refinement_description
;
;
_shelx_res_file
;
TITL JB_SmBSO_0m in C2/c #15
REM reset to C2/c #15
CELL 0.71073 13.6077 11.4725 11.1229 90 93.5718 90
ZERR 8 0.0006 0.0004 0.0004 0 0.0012 0
LATT 7
SYMM -X,+Y,0.5-Z
SFAC B O S Sm
UNIT 8 96 24 8

L.S. 100
PLAN  20
TEMP -100.15
BOND
fmap 2 53
acta
REM <olex2.extras>
REM <HklSrc "%.\\JB_SmBSO_0m.hkl">
REM </olex2.extras>

WGHT    0.022200    3.875500
FVAR       0.05722
SM1   4    0.187945    0.048581    0.155783    11.00000    0.00386    0.00395 =
         0.00298    0.00016    0.00008   -0.00027
S1    3    0.362909    0.298425    0.138786    11.00000    0.00414    0.00347 =
         0.00380   -0.00006    0.00028    0.00015
S3    3   -0.127679    0.513529   -0.077188    11.00000    0.00407    0.00385 =
         0.00505   -0.00059   -0.00029    0.00055
S2    3   -0.077919    0.150374    0.080279    11.00000    0.00486    0.00403 =
         0.00408    0.00044    0.00055   -0.00034
O13   2    0.320193    0.342014    0.024498    11.00000    0.00745    0.00821 =
         0.00587    0.00266   -0.00060    0.00105
O11   2    0.306169    0.202071    0.183619    11.00000    0.00880    0.00947 =
         0.00889    0.00287    0.00045   -0.00395
O12   2    0.379911    0.389918    0.227296    11.00000    0.00894    0.00775 =
         0.00917   -0.00502   -0.00141    0.00145
O14   2    0.466457    0.251013    0.117579    11.00000    0.00472    0.00706 =
         0.00721   -0.00250   -0.00090    0.00142
O33   2   -0.080889    0.633027   -0.060091    11.00000    0.00947    0.00356 =
         0.00874   -0.00036   -0.00335   -0.00049
O34   2   -0.041547    0.431941   -0.096304    11.00000    0.00540    0.00462 =
         0.00784    0.00081    0.00103    0.00209
O24   2   -0.076568    0.278239    0.039277    11.00000    0.00905    0.00422 =
         0.01252    0.00241    0.00528    0.00069
O21   2    0.020579    0.118143    0.123612    11.00000    0.00713    0.01753 =
         0.01126    0.00471    0.00203    0.00520
O31   2   -0.176859    0.481168    0.028865    11.00000    0.00909    0.00853 =
         0.00975    0.00154    0.00361    0.00252
O32   2   -0.186261    0.519741   -0.188580    11.00000    0.00835    0.00880 =
         0.00826   -0.00163   -0.00351    0.00143
O22   2   -0.148288    0.150825    0.172914    11.00000    0.00868    0.01178 =
         0.00901    0.00408    0.00489    0.00231
O23   2   -0.112741    0.082299   -0.022841    11.00000    0.01953    0.01404 =
         0.00942   -0.00610    0.00069   -0.00861
B1    1   -0.000239    0.329866   -0.028469    11.00000    0.00681    0.00440 =
         0.00612    0.00021    0.00025   -0.00021
HKLF 4

REM  JB_SmBSO_0m in C2/c #15
REM R1 =  0.0197 for    4351 Fo > 4sig(Fo)  and  0.0228 for all    4675 data
REM    154 parameters refined using      0 restraints

END

WGHT      0.0222      3.8755

REM Highest difference peak  0.755,  deepest hole -2.225,  1-sigma level  0.200
Q1    1   0.1982 -0.0403  0.1725  11.00000  0.05    0.76
Q2    1   0.1941  0.1409  0.1673  11.00000  0.05    0.74
Q3    1   0.1354  0.0383  0.2242  11.00000  0.05    0.73
Q4    1   0.3170  0.4207  0.2759  11.00000  0.05    0.71
Q5    1   0.2457  0.0387  0.0947  11.00000  0.05    0.70
Q6    1   0.4410  0.4439  0.2787  11.00000  0.05    0.69
Q7    1  -0.1174  0.1181  0.0187  11.00000  0.05    0.63
Q8    1   0.2429  0.0727  0.0996  11.00000  0.05    0.59
Q9    1   0.3206  0.3213  0.0639  11.00000  0.05    0.57
Q10   1   0.2613  0.1420  0.0796  11.00000  0.05    0.56
Q11   1   0.2171  0.1068  0.2242  11.00000  0.05    0.55
Q12   1  -0.0773  0.2464  0.0836  11.00000  0.05    0.55
Q13   1   0.1204  0.0347  0.1081  11.00000  0.05    0.55
Q14   1  -0.0816  0.3749 -0.1633  11.00000  0.05    0.54
Q15   1  -0.1396  0.0670  0.0021  11.00000  0.05    0.54
Q16   1  -0.1774  0.5179 -0.0221  11.00000  0.05    0.52
Q17   1   0.3629  0.4946  0.1580  11.00000  0.05    0.52
Q18   1   0.1621  0.1260  0.1103  11.00000  0.05    0.51
Q19   1  -0.0757  0.3368  0.0809  11.00000  0.05    0.50
Q20   1   0.2427 -0.0176  0.1641  11.00000  0.05    0.50
;
_shelx_res_checksum              22884
_shelx_hkl_file
;
  -2   0   0  107.24    3.28
  -2   0   0  112.45    3.34
   2   0   0  111.48    3.28
   2   0   0  106.22    3.36
   4   0   0  283.72    8.26
   4   0   0  280.34    8.34
  -4   0   0  270.61    8.36
  -4   0   0  260.31    8.26
  -4   0   0  285.76    8.36
  -6   0   0  345.48   11.45
   6   0   0  397.30   11.59
   6   0   0  386.31   11.44
  -6   0   0  407.44   11.62
  -6   0   0  375.64   11.62
   8   0   0  392.08   11.22
  -8   0   0  370.54   11.46
  -8   0   0  354.99   11.25
  10   0   0  156.84    4.94
 -10   0   0  156.49    5.04
 -10   0   0  159.96    5.28
 -12   0   0    6.21    0.74
 -12   0   0    6.01    0.53
 -14   0   0   47.77    2.25
  14   0   0   45.72    1.75
 -14   0   0   43.46    1.85
 -16   0   0  309.39   10.36
  16   0   0  315.59    9.66
 -16   0   0  310.85    9.88
 -18   0   0  228.67    8.21
  18   0   0  240.79    7.39
 -18   0   0  231.25    7.70
 -20   0   0   24.13    2.39
  20   0   0   25.10    1.40
 -20   0   0   26.16    2.49
 -20   0   0   22.29    1.62
 -22   0   0   83.67    4.38
 -22   0   0   69.41    4.36
 -22   0   0   77.39    3.41
   1  -1   0   80.19    2.30
  -1  -1   0   71.51    2.31
  -1  -1   0   76.49    2.35
   1  -1   0   71.45    2.28
  -1  -1   0   73.29    2.31
  -1  -1   0   77.10    2.32
   1   1   0   82.07    2.34
  -1   1   0   71.78    2.33
   1   1   0   81.41    2.30
  -1   1   0   81.39    2.31
  -3  -1   0  328.57   10.43
   3  -1   0  345.65   10.34
  -3  -1   0  325.73   10.39
  -3  -1   0  350.69   10.37
  -3   1   0  332.86   10.34
   3   1   0  362.80   10.32
  -3   1   0  351.72   10.51
  -3   1   0  355.45   10.37
   3   1   0  356.81   10.41
  -3   1   0  353.74   10.33
   5  -1   0  218.20    6.71
  -5  -1   0  210.98    6.76
  -5  -1   0  239.45    6.87
  -5  -1   0  211.33    6.88
   5  -1   0  231.97    6.81
   5   1   0  232.40    6.89
  -5   1   0  216.31    6.84
  -5   1   0  210.64    6.73
  -5   1   0  225.55    6.72
   5   1   0  222.34    6.75
  -5   1   0  239.27    6.87
  -7  -1   0   45.21    1.66
   7  -1   0   43.66    1.44
  -7  -1   0   40.43    1.65
   7  -1   0   42.21    1.57
   7   1   0   43.48    1.48
  -7   1   0   40.83    1.61
   7   1   0   42.01    1.65
  -7   1   0   40.73    1.47
  -7   1   0   44.44    1.46
   9  -1   0   20.86    0.83
  -9  -1   0   19.44    1.09
  -9   1   0   19.40    0.86
   9   1   0   19.77    0.88
  -9   1   0   19.32    1.04
 -11  -1   0  217.18    7.10
 -11  -1   0  212.54    6.80
  11  -1   0  211.98    6.66
 -11   1   0  224.70    7.07
 -11   1   0  214.14    6.76
 -13  -1   0   94.77    3.30
 -13  -1   0   94.13    3.64
 -13   1   0   94.02    3.27
 -13   1   0   93.94    3.59
 -15  -1   0   20.88    1.55
  15  -1   0   18.72    0.95
 -15  -1   0   19.28    1.13
 -15   1   0   18.29    1.40
  15   1   0   18.76    0.99
 -15   1   0   18.60    1.09
  17  -1   0    2.70    0.44
 -17  -1   0    2.38    0.50
 -17  -1   0    2.16    0.83
 -17   1   0    3.13    0.86
  17   1   0    2.36    0.46
 -17   1   0    2.96    0.58
 -19  -1   0   66.42    4.08
  19  -1   0   69.34    2.56
 -19  -1   0   66.96    4.70
  19   1   0   74.68    2.68
 -19   1   0   70.84    3.52
 -19   1   0   71.04    2.93
 -21  -1   0   65.43    3.71
 -21  -1   0   57.77    2.83
 -21  -1   0   57.72    3.71
 -21   1   0   60.23    3.55
 -21   1   0   63.21    3.72
  21   1   0   62.79    2.49
 -21   1   0   58.55    2.78
 -23  -1   0   33.37    2.39
 -23  -1   0   33.94    3.61
 -23  -1   0   41.63    3.75
 -23   1   0   40.10    3.39
 -23   1   0   28.50    3.47
 -23   1   0   38.17    2.35
   0  -2   0  328.09    9.94
   0  -2   0  321.28   10.08
   0  -2   0  341.48   10.13
   0   2   0  336.24   10.15
   0   2   0  352.73   10.09
   0   2   0  339.14    9.99
   0   2   0  323.33   10.11
   0   2   0  333.46    9.95
   0   2   0  334.73   10.05
   2  -2   0  359.80   10.85
  -2  -2   0  336.37   10.63
  -2  -2   0  357.33   10.66
  -2  -2   0  339.24   10.70
   2  -2   0  373.67   10.70
   2  -2   0  376.52   10.66
  -2  -2   0  360.42   10.79
  -2  -2   0  356.24   10.77
   2   2   0  337.45   10.63
  -2   2   0  354.76   10.81
  -2   2   0  347.22   10.65
   2   2   0  385.11   10.77
  -2   2   0  362.37   10.74
  -4  -2   0    6.55    0.44
   4  -2   0    7.47    0.34
   4  -2   0    7.70    0.37
  -4  -2   0    7.05    0.41
   4  -2   0    7.76    0.31
  -4  -2   0    7.38    0.41
  -4  -2   0    7.36    0.37
  -4   2   0    7.69    0.34
  -4   2   0    7.27    0.38
  -4   2   0    7.82    0.33
  -4   2   0    8.02    0.42
   4   2   0    7.98    0.38
   6  -2   0  209.97    6.23
  -6  -2   0  216.32    6.44
  -6  -2   0  197.91    6.48
  -6  -2   0  191.99    6.32
   6  -2   0  209.95    6.34
  -6   2   0  198.63    6.39
  -6   2   0  196.51    6.26
   6   2   0  213.45    6.33
   6   2   0  213.84    6.49
  -6   2   0  205.10    6.27
  -6   2   0  221.87    6.45
   8  -2   0  179.46    5.30
  -8  -2   0  172.70    5.65
  -8  -2   0  172.94    5.43
   8   2   0  173.29    5.40
  -8   2   0  169.86    5.54
  -8   2   0  171.12    5.36
   8   2   0  174.62    5.62
 -10  -2   0  137.34    4.39
 -10  -2   0  131.79    4.64
  10  -2   0  138.19    4.23
 -10   2   0  131.82    4.31
 -10   2   0  136.18    4.57
 -12  -2   0   11.82    0.78
 -12  -2   0   12.91    1.07
  12  -2   0   12.74    0.73
 -12   2   0   12.18    0.74
 -12   2   0   12.53    0.97
 -14  -2   0  153.15    5.00
 -14  -2   0  145.79    5.35
  14  -2   0  152.25    4.73
 -14   2   0  145.17    4.91
  14   2   0  148.94    4.86
 -14   2   0  146.15    5.28
 -16  -2   0  165.15    6.08
  16  -2   0  163.92    5.26
 -16  -2   0  167.56    6.07
 -16  -2   0  170.39    5.64
 -16   2   0  158.90    5.94
  16   2   0  169.50    5.44
 -16   2   0  167.50    5.56
 -18  -2   0   16.65    1.88
 -18  -2   0   13.69    1.17
  18  -2   0   13.51    0.89
 -18  -2   0   10.87    1.70
 -18   2   0   12.92    1.57
 -18   2   0   12.63    1.11
  18   2   0   13.50    0.99
 -20  -2   0    0.05    1.17
  20  -2   0    0.64    0.64
 -20  -2   0    0.42    0.68
 -20  -2   0    1.60    1.14
 -20   2   0   -0.12    0.95
 -20   2   0    2.54    0.72
  20   2   0    0.55    0.55
 -22  -2   0   23.22    1.93
 -22  -2   0   23.42    3.06
 -22  -2   0   25.54    3.25
 -22   2   0   26.29    2.99
 -22   2   0   25.52    2.75
 -22   2   0   22.13    1.89
  22   2   0   25.43    1.67
  -1  -3   0   88.03    2.74
  -1  -3   0   91.39    2.80
  -1  -3   0   87.51    2.74
  -1  -3   0   88.89    2.69
  -1  -3   0   87.05    2.73
   1  -3   0   92.47    2.74
   1  -3   0   87.49    2.74
  -1  -3   0   90.55    2.77
   1  -3   0   89.68    2.74
   1  -3   0   89.82    2.70
   1   3   0   94.36    2.78
  -1   3   0   87.74    2.75
  -1   3   0   82.23    2.70
   1   3   0   90.01    2.81
  -1   3   0   93.60    2.74
  -1   3   0   91.77    2.74
   1   3   0   93.83    2.75
  -1   3   0   93.76    2.81
  -1   3   0   88.65    2.68
   1   3   0   81.99    2.74
   1   3   0   90.05    2.73
  -3  -3   0    7.79    0.37
  -3  -3   0    7.01    0.31
  -3  -3   0    6.62    0.43
   3  -3   0    6.74    0.26
  -3  -3   0    7.08    0.38
   3  -3   0    7.70    0.33
  -3  -3   0    6.56    0.34
   3  -3   0    7.36    0.33
   3   3   0    8.46    0.46
  -3   3   0    7.93    0.37
   3   3   0    7.42    0.39
  -3   3   0    7.62    0.33
  -3   3   0    6.44    0.29
  -3   3   0    6.79    0.34
  -3   3   0    7.06    0.34
  -5  -3   0  199.88    6.51
   5  -3   0  205.72    6.46
  -5  -3   0  193.83    6.42
   5  -3   0  215.38    6.39
  -5  -3   0  205.25    6.66
  -5  -3   0  212.69    6.59
   5  -3   0  223.22    6.48
  -5  -3   0  225.07    6.58
  -5   3   0  220.78    6.47
  -5   3   0  207.75    6.53
   5   3   0  217.13    6.67
  -5   3   0  234.33    6.60
   5   3   0  225.04    6.53
  -5   3   0  205.26    6.43
  -7  -3   0  143.96    4.74
   7  -3   0  156.23    4.59
  -7  -3   0  159.42    4.87
  -7  -3   0  143.92    4.92
  -7  -3   0  144.20    4.85
   7  -3   0  142.84    4.69
  -7   3   0  148.71    4.80
   7   3   0  148.33    4.73
   7   3   0  163.38    4.97
  -7   3   0  146.23    4.65
  -7   3   0  164.91    4.88
   9  -3   0    5.25    0.36
  -9  -3   0    4.86    0.44
  -9  -3   0    4.55    0.59
  -9  -3   0    4.92    0.65
  -9   3   0    4.33    0.52
  -9   3   0    4.73    0.38
  11  -3   0  165.48    4.99
 -11  -3   0  161.00    5.45
 -11  -3   0  161.39    5.22
 -11  -3   0  163.56    5.53
 -11   3   0  158.05    5.38
 -11   3   0  157.51    5.19
 -13  -3   0   57.53    2.59
 -13  -3   0   57.44    2.54
  13  -3   0   55.55    2.01
 -13  -3   0   60.00    2.26
 -13   3   0   54.21    2.43
  13   3   0   60.16    2.19
 -13   3   0   59.59    2.17
 -15  -3   0    0.48    0.57
  15  -3   0    0.48    0.24
 -15  -3   0    0.12    0.33
 -15  -3   0   -0.25    0.60
 -15   3   0    0.48    0.32
 -15   3   0    0.14    0.49
  15   3   0    0.13    0.30
 -17  -3   0    7.47    1.22
 -17  -3   0    5.94    0.90
  17  -3   0    5.46    0.60
 -17  -3   0    6.92    1.19
  17   3   0    5.25    0.73
 -17   3   0    6.70    0.82
 -17   3   0    4.42    0.89
  19  -3   0    0.81    0.62
 -19  -3   0    0.08    0.54
 -19  -3   0    0.10    1.11
 -19  -3   0   -1.19    1.03
 -19   3   0   -0.26    0.79
 -19   3   0    1.00    0.61
 -21  -3   0   48.16    2.02
 -21  -3   0   47.13    3.39
 -21  -3   0   44.23    2.43
 -21  -3   0   43.30    3.43
 -21   3   0   45.32    2.38
  21   3   0   41.52    2.07
 -21   3   0   36.61    2.89
 -23  -3   0   20.09    2.06
 -23  -3   0   15.15    2.45
 -23  -3   0   20.77    2.58
 -23   3   0   25.67    2.94
 -23   3   0   22.94    2.00
 -23   3   0   19.28    2.64
  23   3   0   22.68    1.72
   0  -4   0   51.82    1.69
   0  -4   0   49.12    1.63
   0  -4   0   50.98    1.64
   0   4   0   50.69    1.62
   0   4   0   52.34    1.62
   0   4   0   51.07    1.69
   0   4   0   54.77    1.71
   0   4   0   49.59    1.68
   0   4   0   50.13    1.62
  -2  -4   0  139.83    4.36
   2  -4   0  145.31    4.24
  -2  -4   0  134.34    4.26
   2  -4   0  137.84    4.18
   2  -4   0  134.66    4.25
   2  -4   0  134.60    4.27
  -2  -4   0  140.97    4.30
  -2  -4   0  138.26    4.22
  -2  -4   0  127.58    4.23
  -2   4   0  139.07    4.27
  -2   4   0  147.34    4.26
   2   4   0  137.76    4.73
   2   4   0  147.84    4.29
   2   4   0  134.30    4.27
  -2   4   0  145.46    4.37
  -2   4   0  141.05    4.26
   2   4   0  145.94    4.24
  -2   4   0  135.08    4.21
   2   4   0  146.23    4.31
  -4  -4   0    0.25    0.16
   4  -4   0    0.00    0.11
   4  -4   0    0.22    0.06
  -4  -4   0    0.07    0.13
   4  -4   0    0.09    0.07
  -4  -4   0    0.13    0.07
  -4  -4   0    0.07    0.13
  -4  -4   0    0.07    0.09
  -4   4   0    0.27    0.14
  -4   4   0    0.29    0.12
  -4   4   0    0.10    0.07
   4   4   0   -0.08    0.13
   4   4   0    0.31    0.19
   4   4   0    0.34    0.13
  -4   4   0    0.08    0.11
   6  -4   0   98.93    3.10
   6  -4   0   93.03    3.05
  -6  -4   0   93.78    3.07
  -6  -4   0  104.39    3.25
  -6  -4   0   97.50    3.36
   6  -4   0  101.10    3.13
  -6  -4   0   93.45    3.17
  -6  -4   0   99.10    3.27
  -6   4   0   97.60    3.13
  -6   4   0   97.05    3.12
   6   4   0   97.25    3.18
  -6   4   0   93.82    3.19
  -6   4   0  109.31    3.27
   6   4   0  101.74    3.61
  -6   4   0  100.99    3.08
   8  -4   0   29.09    0.94
  -8  -4   0   25.87    1.31
  -8  -4   0   27.46    1.14
  -8  -4   0   26.59    1.24
  -8  -4   0   26.79    0.99
   8   4   0   25.96    1.39
  -8   4   0   26.34    1.02
  -8   4   0   26.09    1.18
  10  -4   0    5.07    0.37
 -10  -4   0    4.47    0.47
 -10  -4   0    3.09    0.56
 -10  -4   0    5.13    0.73
 -10   4   0    4.62    0.41
 -10   4   0    4.41    0.57
 -12  -4   0   38.40    1.87
 -12  -4   0   38.33    1.61
  12  -4   0   38.12    1.35
 -12  -4   0   34.97    1.90
 -12   4   0   36.92    1.49
  12   4   0   37.24    1.55
 -12   4   0   36.63    1.75
 -14  -4   0   25.48    1.74
 -14  -4   0   24.00    1.30
 -14  -4   0   26.52    1.68
  14  -4   0   25.02    0.98
 -14   4   0   23.92    1.20
 -14   4   0   23.19    1.45
  14   4   0   23.83    1.20
 -16  -4   0   43.55    2.57
  16  -4   0   47.00    1.66
 -16  -4   0   48.55    2.13
 -16  -4   0   49.40    2.56
 -16   4   0   47.53    2.00
  16   4   0   46.94    1.97
 -16   4   0   45.32    2.36
 -18  -4   0   12.67    1.94
 -18  -4   0   16.31    1.87
 -18  -4   0   13.82    0.93
 -18   4   0   13.03    1.15
  18   4   0   14.36    1.08
 -20  -4   0   -0.25    1.29
 -20  -4   0   -1.08    0.50
 -20  -4   0   -0.67    1.28
 -20  -4   0    1.05    0.74
  20   4   0    0.87    0.59
 -20   4   0    0.99    0.94
 -20   4   0   -0.98    0.66
 -22  -4   0   14.11    2.23
 -22  -4   0   16.95    1.77
 -22  -4   0   18.38    2.56
 -22   4   0   14.44    1.76
  22   4   0   16.38    1.54
 -22   4   0   16.95    2.03
   1  -5   0   46.45    1.59
  -1  -5   0   47.51    1.64
   1  -5   0   47.71    1.59
  -1  -5   0   46.01    1.57
  -1  -5   0   48.06    1.59
  -1   5   0   49.13    1.69
   1   5   0   48.82    1.58
   1   5   0   52.54    1.61
  -1   5   0   47.77    1.55
  -1   5   0   46.90    1.63
   1   5   0   49.13    1.59
  -1   5   0   50.12    1.60
   1   5   0   45.32    1.67
   1   5   0   49.99    1.66
   1   5   0   49.60    1.69
  -1   5   0   50.26    1.59
  -3  -5   0   17.29    0.66
  -3  -5   0   16.32    0.80
   3  -5   0   17.00    0.68
  -3  -5   0   16.71    0.69
   3  -5   0   17.33    0.65
  -3  -5   0   16.89    0.73
  -3  -5   0   17.07    0.66
   3   5   0   17.64    0.83
  -3   5   0   17.58    0.82
  -3   5   0   17.57    0.69
   3   5   0   17.66    0.75
   3   5   0   16.38    0.70
  -3   5   0   16.81    0.62
   3   5   0   17.38    0.72
   3   5   0   16.64    0.65
  -3   5   0   16.91    0.70
  -3   5   0   18.21    0.66
  -3   5   0   17.53    0.69
   5  -5   0    0.87    0.15
   5  -5   0    0.64    0.17
  -5  -5   0    0.87    0.17
  -5  -5   0    0.99    0.29
  -5  -5   0    0.80    0.14
  -5  -5   0    1.22    0.24
  -5  -5   0    1.09    0.24
  -5   5   0    0.67    0.17
  -5   5   0    0.55    0.17
   5   5   0    1.48    0.33
  -5   5   0    0.89    0.19
  -5   5   0    1.24    0.23
  -5   5   0    1.09    0.16
  -7  -5   0    1.01    0.27
   7  -5   0    0.24    0.09
  -7  -5   0    0.23    0.28
  -7  -5   0    0.37    0.12
  -7  -5   0    0.36    0.26
  -7  -5   0    0.17    0.17
   7  -5   0    0.25    0.16
  -7   5   0    0.34    0.13
   7   5   0    1.02    0.39
  -7   5   0    0.54    0.21
  -7   5   0    0.79    0.27
   9  -5   0   14.10    0.56
  -9  -5   0   12.25    0.87
  -9  -5   0   13.64    0.76
  -9  -5   0   13.50    0.99
  -9   5   0   12.07    0.79
  -9   5   0   13.19    0.65
 -11  -5   0    8.20    0.50
 -11  -5   0    8.65    0.68
  11  -5   0    9.27    0.47
 -11  -5   0    8.92    0.99
 -11  -5   0    9.09    0.90
  11   5   0    8.92    0.66
 -11   5   0    8.17    0.66
 -11   5   0    8.51    0.77
 -13  -5   0   11.14    1.14
 -13  -5   0    9.73    0.62
  13  -5   0   11.37    0.58
 -13  -5   0   11.38    1.22
 -13  -5   0   11.48    0.84
  13  -5   0   10.39    0.52
 -13   5   0   10.82    0.96
  13   5   0    9.80    0.74
 -13   5   0   10.99    0.73
 -15  -5   0   -0.26    0.64
 -15  -5   0    0.13    0.26
 -15  -5   0    0.48    0.37
 -15  -5   0    0.46    0.68
 -15   5   0    0.13    0.46
 -15   5   0    0.64    0.33
  15   5   0    0.42    0.32
 -17  -5   0   12.64    1.12
 -17  -5   0   14.11    1.74
 -17  -5   0   14.22    0.89
 -17  -5   0   14.86    1.87
 -17   5   0   10.97    1.37
  17   5   0   13.71    1.86
 -17   5   0   12.95    1.13
  17   5   0   12.51    1.01
 -19  -5   0   -0.12    1.15
 -19  -5   0   -0.41    0.59
 -19  -5   0    1.23    0.47
 -19  -5   0    2.39    1.48
 -19   5   0   -0.11    0.78
 -19   5   0   -0.50    0.60
  19   5   0    0.67    0.54
 -21  -5   0    9.83    1.97
 -21  -5   0   11.21    1.09
 -21  -5   0    9.02    1.90
 -21  -5   0    8.51    1.23
 -21   5   0    8.02    1.50
  21   5   0    9.88    1.28
 -21   5   0    9.02    1.22
   0  -6   0   12.06    0.56
   0  -6   0   13.83    0.57
   0  -6   0   12.58    0.61
   0   6   0   13.50    0.67
   0   6   0   12.41    0.54
   0   6   0   13.20    0.56
   0   6   0   12.59    0.63
   0   6   0   13.04    0.56
   0   6   0   13.15    0.64
  -2  -6   0    4.38    0.30
  -2  -6   0    5.01    0.38
  -2  -6   0    5.31    0.31
   2  -6   0    4.64    0.33
  -2  -6   0    4.56    0.40
  -2  -6   0    4.24    0.31
   2  -6   0    5.49    0.34
  -2   6   0    5.31    0.36
   2   6   0    4.63    0.35
   2   6   0    5.05    0.41
  -2   6   0    5.33    0.48
  -2   6   0    5.51    0.37
   2   6   0    5.30    0.34
   2   6   0    5.42    0.41
   2   6   0    4.82    0.32
  -2   6   0    5.39    0.29
  -2   6   0    4.72    0.35
   2   6   0    4.39    0.43
  -4  -6   0   44.14    1.71
  -4  -6   0   43.28    1.60
  -4  -6   0   43.83    1.50
   4  -6   0   41.98    1.53
  -4  -6   0   44.42    1.56
  -4  -6   0   46.27    1.53
   4  -6   0   42.95    1.46
  -4   6   0   48.07    1.52
   4   6   0   45.30    1.61
  -4   6   0   44.31    1.47
   4   6   0   42.25    1.70
  -4   6   0   44.43    1.73
  -4   6   0   43.91    1.57
   4   6   0   46.20    1.75
   4   6   0   41.19    1.55
   4   6   0   46.08    1.51
  -6  -6   0    0.59    0.32
  -6  -6   0   -0.01    0.20
   6  -6   0    0.33    0.15
  -6  -6   0    0.18    0.11
  -6  -6   0    0.00    0.24
  -6  -6   0    0.19    0.17
   6   6   0    0.23    0.16
  -6   6   0    0.16    0.19
  -6   6   0    0.38    0.12
   6   6   0    0.23    0.32
  -6   6   0    0.18    0.23
  -8  -6   0   11.35    0.77
  -8  -6   0   11.55    0.69
  -8  -6   0   10.80    0.89
   8  -6   0   12.08    0.62
  -8   6   0   11.44    0.56
  -8   6   0    9.84    0.68
   8   6   0   10.18    0.65
 -10  -6   0    5.23    0.39
 -10  -6   0    5.29    0.79
 -10  -6   0    4.58    0.52
 -10   6   0    5.05    0.57
  10   6   0    4.19    0.47
 -10   6   0    4.82    0.44
 -12  -6   0    9.91    0.59
 -12  -6   0   11.23    1.21
 -12  -6   0    8.87    1.04
 -12  -6   0   10.01    0.78
 -12   6   0    9.95    0.67
 -12   6   0    9.24    0.87
  12   6   0    9.44    0.72
 -14  -6   0   41.90    2.35
 -14  -6   0   41.59    1.90
 -14  -6   0   42.59    2.18
 -14  -6   0   43.32    1.62
 -14   6   0   41.72    1.74
 -14   6   0   42.67    2.05
  14   6   0   40.20    1.79
 -16  -6   0    2.46    1.08
 -16  -6   0    1.52    0.36
 -16  -6   0    1.01    0.47
 -16  -6   0    2.28    0.88
 -16   6   0    2.09    0.70
  16   6   0    1.33    0.43
  16   6   0    0.83    0.92
 -16   6   0    1.37    0.46
 -18  -6   0    0.38    0.41
 -18  -6   0    0.58    0.54
 -18  -6   0    0.01    1.11
 -18  -6   0   -0.16    1.04
  18   6   0    0.69    0.50
 -18   6   0    0.93    0.71
 -18   6   0    0.76    0.56
 -20  -6   0    8.62    1.80
 -20  -6   0    6.07    1.75
 -20  -6   0    6.36    0.97
 -20  -6   0    9.01    1.20
  20   6   0    8.29    1.18
 -20   6   0   10.23    1.41
 -20   6   0    6.33    1.31
 -22  -6   0   -0.34    0.93
 -22  -6   0    0.46    2.05
 -22   6   0   -0.38    1.31
  22   6   0    0.69    0.82
  -1  -7   0    7.78    0.45
   1  -7   0    7.74    0.46
  -1  -7   0    8.01    0.43
   1  -7   0    8.29    0.46
  -1  -7   0    7.59    0.49
  -1   7   0    7.90    0.51
   1   7   0    8.01    0.55
  -1   7   0    8.03    0.44
   1   7   0    8.21    0.55
  -1   7   0    7.45    0.50
   1   7   0    8.00    0.47
   1   7   0    8.29    0.56
  -1   7   0    8.30    0.41
  -1   7   0    8.59    0.60
   1   7   0    8.64    0.60
   1   7   0    6.83    0.41
  -3  -7   0  228.74    7.03
  -3  -7   0  219.16    6.94
   3  -7   0  207.72    6.89
  -3  -7   0  222.85    6.85
   3  -7   0  199.40    6.98
  -3  -7   0  235.19    6.77
  -3  -7   0  219.89    6.86
  -3  -7   0  232.10    6.94
  -3   7   0  227.74    6.74
  -3   7   0  236.89    7.08
   3   7   0  217.15    6.89
  -3   7   0  217.81    6.80
   3   7   0  238.41    7.11
   3   7   0  242.19    6.97
  -5  -7   0   39.23    1.66
  -5  -7   0   40.15    1.53
  -5  -7   0   41.61    1.46
  -5  -7   0   40.13    1.41
  -5  -7   0   38.61    1.48
  -5   7   0   37.74    1.48
  -5   7   0   39.62    1.37
   5   7   0   41.27    1.72
   5   7   0   37.13    1.49
   5   7   0   41.29    1.54
  -5   7   0   42.91    1.44
   5   7   0   38.38    1.66
  -7  -7   0   23.35    1.11
  -7  -7   0   21.91    1.23
  -7  -7   0   21.51    1.02
  -7  -7   0   22.13    1.10
  -7  -7   0   23.13    0.92
   7  -7   0   23.86    0.98
   7   7   0   23.50    1.04
   7   7   0   23.13    1.34
  -7   7   0   23.59    1.08
  -7   7   0   22.62    0.90
  -7   7   0   22.19    1.04
  -9  -7   0    2.64    0.50
   9  -7   0    3.32    0.39
  -9  -7   0    3.01    0.33
  -9  -7   0    2.33    0.58
  -9  -7   0    2.95    0.43
  -9   7   0    3.36    0.36
  -9   7   0    2.58    0.41
   9   7   0    4.30    0.46
 -11  -7   0    8.03    1.03
 -11  -7   0    6.68    0.89
 -11  -7   0    6.74    0.50
 -11  -7   0    7.11    0.67
 -11   7   0    7.67    0.75
  11   7   0    7.68    0.63
 -11   7   0    6.94    0.56
 -13  -7   0   85.51    3.27
 -13  -7   0   87.69    3.02
 -13  -7   0   96.76    3.79
 -13  -7   0   89.19    3.49
  13   7   0   93.84    3.66
  13   7   0   86.34    3.22
 -13   7   0   86.85    3.41
 -13   7   0   93.31    3.13
 -15  -7   0   25.40    1.20
 -15  -7   0   27.48    2.12
 -15  -7   0   26.02    1.48
 -15  -7   0   25.13    1.84
  15   7   0   24.85    1.92
  15   7   0   25.89    1.39
 -15   7   0   27.07    1.67
 -15   7   0   26.26    1.34
 -17  -7   0   21.31    2.38
 -17  -7   0   18.25    1.36
 -17  -7   0   17.97    2.00
 -17  -7   0   18.65    1.10
  17   7   0   20.80    2.26
  17   7   0   18.61    1.28
 -17   7   0   19.14    1.29
 -17   7   0   18.51    1.63
 -19  -7   0   31.45    1.57
 -19  -7   0   28.29    1.87
 -19  -7   0   31.71    3.38
 -19   7   0   30.82    2.28
 -19   7   0   27.94    1.99
  19   7   0   31.07    1.74
 -21  -7   0   39.39    3.83
 -21  -7   0   29.15    2.14
  21   7   0   31.32    1.90
 -21   7   0   34.13    2.13
 -21   7   0   25.00    2.53
   0  -8   0   76.54    2.60
   0  -8   0   78.45    2.61
   0   8   0   84.70    2.76
   0   8   0   81.12    2.75
   0   8   0   78.16    2.57
   0   8   0   76.89    2.72
  -2  -8   0  141.39    4.49
   2  -8   0  142.16    4.49
  -2  -8   0  143.82    4.47
  -2  -8   0  142.45    4.52
   2  -8   0  142.68    4.51
   2   8   0  145.12    4.49
   2   8   0  142.82    4.69
   2   8   0  149.39    4.59
  -2   8   0  145.49    4.67
  -2   8   0  142.71    4.56
  -2   8   0  143.05    4.42
   2   8   0  136.29    4.64
  -2   8   0  135.62    4.55
  -4  -8   0    3.43    0.38
  -4  -8   0    2.75    0.35
  -4  -8   0    2.75    0.32
   4  -8   0    2.97    0.32
  -4  -8   0    2.40    0.35
  -4  -8   0    3.03    0.31
  -4  -8   0    3.38    0.51
  -4   8   0    2.99    0.27
  -4   8   0    2.15    0.25
   4   8   0    2.24    0.33
   4   8   0    2.47    0.39
   4   8   0    2.91    0.41
  -4   8   0    2.83    0.37
   4   8   0    3.09    0.47
  -6  -8   0  100.08    3.49
  -6  -8   0  102.16    3.37
  -6  -8   0  110.07    3.73
  -6  -8   0  107.90    3.44
   6  -8   0  104.88    3.43
  -6  -8   0  102.71    3.46
  -6   8   0  102.17    3.48
  -6   8   0  102.89    3.34
   6   8   0  104.43    3.71
  -6   8   0  113.92    3.42
   6   8   0  104.83    3.49
  -8  -8   0  131.32    4.62
   8  -8   0  135.49    4.28
  -8  -8   0  131.33    4.20
  -8  -8   0  132.22    4.35
  -8  -8   0  131.23    4.40
  -8   8   0  137.95    4.39
   8   8   0  132.21    4.62
  -8   8   0  127.58    4.17
   8   8   0  129.78    4.35
  -8   8   0  132.07    4.38
 -10  -8   0   46.57    2.26
  10  -8   0   45.85    1.80
 -10  -8   0   48.24    2.06
 -10  -8   0   46.95    1.91
 -10  -8   0   48.89    1.73
 -10   8   0   42.38    2.08
  10   8   0   46.72    1.89
 -10   8   0   49.78    1.97
  10   8   0   47.21    2.19
 -12  -8   0    1.30    0.65
 -12  -8   0    1.28    0.56
 -12  -8   0    1.00    0.28
 -12  -8   0    1.36    0.42
 -12   8   0    1.04    0.33
  12   8   0    1.38    0.59
 -12   8   0    0.64    0.41
  12   8   0    1.37    0.37
 -14  -8   0   30.21    1.30
 -14  -8   0   31.01    1.59
 -14  -8   0   27.67    1.86
 -14  -8   0   26.88    2.13
 -14   8   0   29.77    1.72
  14   8   0   30.56    1.51
  14   8   0   31.19    2.02
 -14   8   0   30.63    1.42
 -16  -8   0   63.94    3.02
 -16  -8   0   67.30    2.45
 -16  -8   0   69.14    3.21
 -16  -8   0   67.14    3.56
  16   8   0   64.38    2.86
  16   8   0   69.00    3.38
 -16   8   0   71.13    2.66
 -16   8   0   62.22    3.12
 -18  -8   0   25.44    2.93
 -18  -8   0   28.52    2.63
 -18  -8   0   23.39    1.72
 -18  -8   0   26.09    1.37
 -18   8   0   28.33    1.62
  18   8   0   22.99    1.53
 -18   8   0   23.52    1.96
 -20  -8   0   17.94    1.73
 -20   8   0   18.36    1.91
  20   8   0   16.58    1.49
 -20   8   0   15.71    2.04
  -1  -9   0   64.95    2.27
   1  -9   0   67.59    2.30
   1  -9   0   65.54    2.29
  -1  -9   0   66.97    2.29
   1   9   0   64.68    2.44
   1   9   0   66.89    2.27
  -1   9   0   70.09    2.43
  -1   9   0   66.95    2.40
  -1   9   0   64.23    2.46
   1   9   0   66.91    2.42
   1   9   0   72.97    2.51
  -1   9   0   66.44    2.23
  -3  -9   0  351.65   10.82
  -3  -9   0  336.34   10.83
   3  -9   0  358.10   10.83
   3  -9   0  343.09   10.85
  -3  -9   0  348.87   10.79
   3   9   0  380.23   10.93
   3   9   0  348.26   10.83
   3   9   0  353.71   11.05
  -3   9   0  352.63   10.74
   3   9   0  385.11   11.13
  -3   9   0  357.49   10.91
  -5  -9   0  126.45    3.87
  -5  -9   0  121.08    4.01
  -5  -9   0  121.66    3.92
   5  -9   0  121.58    3.97
  -5  -9   0  120.43    4.18
  -5  -9   0  123.72    3.98
  -5  -9   0  119.56    3.97
   5   9   0  127.70    4.07
  -5   9   0  131.32    3.81
   5   9   0  118.36    4.23
  -5   9   0  122.28    4.04
  -5   9   0  120.81    3.88
   5   9   0  121.56    4.30
   5   9   0  119.52    4.01
  -7  -9   0   93.74    3.16
  -7  -9   0   90.85    3.38
  -7  -9   0   91.25    3.11
  -7  -9   0   89.69    2.99
   7  -9   0   90.09    3.06
  -7  -9   0   90.86    3.08
  -7   9   0   89.40    2.96
   7   9   0   87.46    3.36
   7   9   0   89.80    3.13
  -7   9   0   96.80    3.05
  -7   9   0   87.09    3.12
   7   9   0   89.97    3.61
   9  -9   0   49.61    1.86
  -9  -9   0   47.77    1.93
  -9  -9   0   47.71    2.30
  -9  -9   0   48.57    1.77
  -9   9   0   48.15    1.77
   9   9   0   47.43    1.92
  -9   9   0   50.18    1.99
   9   9   0   46.97    2.21
 -11  -9   0  183.46    6.05
  11  -9   0  190.07    5.96
 -11  -9   0  174.47    6.09
 -11  -9   0  187.46    5.83
 -11  -9   0  189.33    6.49
 -11   9   0  185.05    6.13
  11   9   0  177.91    6.02
 -11   9   0  187.85    5.86
  11   9   0  184.51    6.41
 -13  -9   0   88.08    3.39
 -13  -9   0   83.33    3.19
 -13  -9   0   80.20    3.66
 -13  -9   0   85.81    2.92
  13   9   0   84.02    3.59
 -13   9   0   82.48    3.30
 -13   9   0   86.35    3.00
  13   9   0   86.24    3.17
 -15  -9   0   32.74    2.18
 -15  -9   0   31.79    2.21
 -15  -9   0   34.43    2.65
 -15  -9   0   34.36    1.49
 -15   9   0   37.22    1.67
  15   9   0   34.38    2.39
 -17  -9   0   12.40    0.99
 -17  -9   0   14.19    2.15
 -17  -9   0   13.23    2.01
 -17  -9   0   10.50    1.22
  17   9   0   12.36    1.76
  17   9   0   10.22    1.09
 -17   9   0    7.58    1.19
 -17   9   0   10.21    1.13
 -19  -9   0  101.92    4.12
 -19   9   0  103.18    4.43
  19   9   0  103.03    3.94
   0 -10   0  199.89    6.40
   0 -10   0  201.88    6.41
   0  10   0  201.09    6.56
   0  10   0  211.63    6.63
   0  10   0  227.85    6.86
   0  10   0  189.85    6.37
   2 -10   0   50.27    1.82
  -2 -10   0   49.59    1.81
   2 -10   0   48.28    1.82
  -2 -10   0   50.49    1.80
  -2 -10   0   47.26    1.83
  -2  10   0   50.38    1.75
   2  10   0   47.92    1.80
  -2  10   0   49.19    1.91
   2  10   0   48.72    1.99
   2  10   0   50.15    2.06
  -2  10   0   51.29    1.95
   2  10   0   48.34    1.95
  -4 -10   0   25.32    1.07
   4 -10   0   24.41    1.09
  -4 -10   0   24.81    1.14
  -4 -10   0   24.51    1.09
   4  10   0   25.54    1.32
   4  10   0   25.49    1.26
   4  10   0   24.80    1.43
  -4  10   0   25.01    1.17
  -4  10   0   24.70    1.02
   4  10   0   26.25    1.13
  -6 -10   0   39.76    1.50
  -6 -10   0   38.20    1.47
  -6 -10   0   38.11    1.53
  -6 -10   0   39.21    1.59
   6 -10   0   38.44    1.53
  -6 -10   0   37.76    1.53
  -6 -10   0   38.33    1.82
   6  10   0   37.12    1.79
   6  10   0   37.82    1.98
  -6  10   0   35.70    1.58
  -6  10   0   40.14    1.38
  -6  10   0   37.81    1.43
   6  10   0   38.15    1.57
  -8 -10   0  420.15   12.82
   8 -10   0  425.37   12.92
  -8 -10   0  427.33   13.28
  -8 -10   0  434.81   12.97
  -8 -10   0  432.57   12.99
   8  10   0  420.77   12.99
  -8  10   0  412.09   13.01
  -8  10   0  396.10   12.80
   8  10   0  431.68   13.35
 -10 -10   0  101.92    3.40
 -10 -10   0  103.65    3.59
 -10 -10   0  102.07    3.66
  10 -10   0  104.75    3.52
 -10 -10   0  105.50    4.05
 -10  10   0   98.17    3.63
  10  10   0  102.12    3.60
 -10  10   0   99.33    3.39
  10  10   0   97.29    3.92
 -12 -10   0   34.53    1.43
 -12 -10   0   33.57    2.33
 -12 -10   0   32.83    1.64
 -12 -10   0   33.82    1.83
  12  10   0   33.56    2.06
  12  10   0   33.73    1.64
 -12  10   0   36.32    1.51
 -12  10   0   31.98    1.71
 -14 -10   0   62.72    2.68
 -14 -10   0   66.72    2.39
 -14 -10   0   66.69    2.94
 -14 -10   0   66.72    3.47
 -14  10   0   66.42    2.49
  14  10   0   61.30    3.18
 -14  10   0   57.97    2.87
  14  10   0   65.14    3.19
 -16 -10   0   39.59    2.08
 -16 -10   0   42.10    1.76
 -16 -10   0   55.31    5.28
  16  10   0   35.72    1.94
  16  10   0   42.25    2.82
 -16  10   0   41.20    1.93
 -16  10   0   37.86    2.21
 -18 -10   0   46.79    1.95
 -18 -10   0   41.62    2.32
  18  10   0   41.91    2.18
 -18  10   0   41.45    2.56
 -20 -10   0   -0.13    0.92
  20  10   0    0.17    0.80
 -20  10   0    3.05    1.22
  -1 -11   0   46.89    1.78
  -1 -11   0   48.60    1.79
   1 -11   0   47.02    1.80
   1 -11   0   47.58    1.79
   1  11   0   47.81    2.05
  -1  11   0   48.07    1.98
   1  11   0   47.87    1.77
  -1  11   0   47.87    1.74
   1  11   0   44.11    1.95
  -1  11   0   46.14    1.93
  -3 -11   0  190.07    5.99
   3 -11   0  191.82    6.02
  -3 -11   0  185.87    6.02
  -3 -11   0  185.75    6.01
   3  11   0  192.16    6.03
   3  11   0  190.36    6.34
  -3  11   0  199.15    6.18
   3  11   0  186.46    6.27
  -3  11   0  188.46    6.13
   3  11   0  187.08    6.11
  -5 -11   0  188.91    6.03
  -5 -11   0  192.18    6.05
  -5 -11   0  194.72    6.00
   5 -11   0  190.90    6.05
  -5  11   0  177.13    6.02
  -5  11   0  184.47    6.12
   5  11   0  196.99    6.50
   5  11   0  194.00    6.09
   5  11   0  186.41    6.36
   5  11   0  193.74    6.13
  -7 -11   0   14.47    1.35
  -7 -11   0   15.93    0.94
  -7 -11   0   15.25    0.91
  -7 -11   0   16.80    0.85
   7 -11   0   16.33    0.90
  -7 -11   0   15.46    1.05
   7  11   0   14.25    1.17
  -7  11   0   16.00    0.99
   7  11   0   16.02    0.94
  -7  11   0   16.02    0.86
  -9 -11   0   20.12    1.00
  -9 -11   0   21.24    1.69
  -9 -11   0   20.75    1.36
  -9 -11   0   20.76    1.16
   9 -11   0   20.85    1.10
  -9 -11   0   19.96    1.10
  -9  11   0   21.62    1.03
  -9  11   0   20.63    1.21
   9  11   0   19.13    1.46
   9  11   0   22.98    1.20
 -11 -11   0  116.01    3.97
  11 -11   0  114.68    3.89
 -11 -11   0  109.40    3.74
 -11 -11   0   98.20    4.85
 -11 -11   0  106.54    3.98
  11  11   0  116.63    4.00
  11  11   0  110.99    4.37
 -11  11   0  114.69    4.06
 -11  11   0  116.64    3.78
 -13 -11   0  100.26    3.75
 -13 -11   0   98.73    5.27
 -13 -11   0  103.57    3.94
 -13 -11   0  105.76    3.51
  13  11   0  100.59    4.42
 -13  11   0   96.95    4.09
  13  11   0   98.96    4.23
 -13  11   0  109.50    3.60
 -15 -11   0   26.89    1.36
 -15 -11   0   26.11    1.66
 -15  11   0   26.26    1.82
  15  11   0   26.49    1.60
 -15  11   0   27.72    1.51
  15  11   0   26.11    2.36
 -17 -11   0   12.15    1.11
 -17 -11   0    9.97    1.19
 -17  11   0   11.72    1.46
  17  11   0   12.57    2.04
  17  11   0   14.58    1.35
 -19 -11   0   65.88    3.18
 -19  11   0   69.99    3.43
  19  11   0   63.08    2.99
   0 -12   0  135.28    4.39
   0 -12   0  129.11    4.35
   0  12   0  138.49    4.66
   0  12   0  128.37    4.54
   0  12   0  131.39    4.31
  -2 -12   0   95.38    3.32
   2 -12   0   97.05    3.38
   2 -12   0   95.39    3.33
  -2 -12   0   94.85    3.33
  -2  12   0   98.43    3.50
  -2  12   0   98.49    3.28
   2  12   0   95.13    3.58
   2  12   0  104.12    3.72
  -2  12   0  100.80    3.55
   2  12   0  101.18    3.35
  -4 -12   0    0.70    0.27
  -4 -12   0    0.95    0.26
   4 -12   0    0.59    0.26
  -4  12   0    1.33    0.48
   4  12   0    0.66    0.29
  -4  12   0    0.73    0.27
  -4  12   0    0.98    0.35
   4  12   0    0.51    0.38
  -6 -12   0   60.78    2.24
  -6 -12   0   61.67    2.30
  -6 -12   0   62.48    2.32
   6 -12   0   62.33    2.31
  -6  12   0   61.63    2.20
   6  12   0   59.12    2.62
   6  12   0   62.30    2.35
  -6  12   0   59.72    2.39
  -8 -12   0  118.24    4.60
   8 -12   0  111.43    3.89
  -8 -12   0  112.80    3.89
  -8 -12   0  115.85    3.81
   8  12   0  109.55    4.29
  -8  12   0  115.84    3.77
  -8  12   0  110.52    4.00
   8  12   0  112.89    3.95
 -10 -12   0   46.21    2.07
  10 -12   0   44.11    1.90
 -10 -12   0   44.53    1.92
 -10 -12   0   44.31    1.80
 -10 -12   0   45.84    1.97
  10  12   0   42.63    2.36
 -10  12   0   44.24    2.06
  10  12   0   46.87    2.01
 -10  12   0   48.56    1.83
  12 -12   0    1.06    0.72
 -12 -12   0    1.16    0.38
 -12 -12   0    1.35    0.54
 -12  12   0   -0.12    0.44
  12  12   0    0.35    0.77
 -14 -12   0   15.07    1.34
 -14 -12   0   17.94    1.08
 -14  12   0   14.90    1.49
  14  12   0   15.72    2.08
  14  12   0   13.40    1.22
 -16 -12   0   58.52    2.79
 -16 -12   0   64.71    2.48
 -16  12   0   63.24    3.06
  16  12   0   60.46    2.75
  16  12   0   62.43    3.76
 -18 -12   0   53.98    2.80
  18  12   0   52.34    2.63
 -18  12   0   56.97    3.09
  -1 -13   0   15.90    0.95
  -1 -13   0   17.53    0.94
   1 -13   0   16.76    0.97
   1 -13   0   15.98    0.93
   1  13   0   17.56    0.95
   1  13   0   14.11    1.09
  -1  13   0   16.85    1.12
  -1  13   0   15.89    0.91
  -3 -13   0   68.83    2.51
   3 -13   0   67.52    2.51
  -3 -13   0   69.98    2.50
   3  13   0   66.37    2.79
   3  13   0   68.54    2.52
  -3  13   0   68.60    2.44
  -3  13   0   66.33    2.66
  -5 -13   0   57.62    2.18
  -5 -13   0   59.33    2.25
   5 -13   0   57.10    2.23
   5  13   0   58.95    2.26
  -5  13   0   54.18    2.32
  -5  13   0   59.88    2.15
   5  13   0   57.78    2.58
  -7 -13   0    2.19    0.48
  -7 -13   0    2.09    0.47
   7 -13   0    2.17    0.41
  -7  13   0    3.38    0.48
  -7  13   0    2.74    0.56
   7  13   0    3.19    0.54
   7  13   0    2.63    0.70
  -9 -13   0    0.19    0.34
   9 -13   0    0.36    0.35
  -9 -13   0    1.14    0.42
   9  13   0    0.69    0.40
  -9  13   0    1.10    0.51
   9  13   0    0.28    0.61
  -9  13   0    0.41    0.39
 -11 -13   0    3.35    0.64
 -11 -13   0    2.94    0.57
 -11 -13   0    4.31    0.57
  11 -13   0    3.38    0.57
 -11  13   0    5.74    0.79
  11  13   0    3.85    1.03
 -11  13   0    3.23    0.69
  11  13   0    3.64    0.94
 -13 -13   0   68.93    2.84
 -13 -13   0   71.81    2.78
 -13 -13   0   69.65    2.61
  13  13   0   66.15    2.83
 -13  13   0   66.22    2.95
  13  13   0   63.76    3.44
 -15 -13   0   14.88    1.48
 -15 -13   0   14.49    1.35
 -15 -13   0   16.15    1.22
  15  13   0   14.01    1.36
  15  13   0   13.92    1.88
 -15  13   0   14.50    1.68
 -17 -13   0    5.09    1.05
 -17 -13   0    5.79    0.99
  17  13   0    5.82    1.00
 -17  13   0    5.17    1.20
   0 -14   0    0.14    0.32
   0 -14   0    0.13    0.29
   0  14   0    0.27    0.33
   0  14   0    0.53    0.44
  -2 -14   0   18.97    1.06
   2 -14   0   19.13    1.08
  -2 -14   0   18.35    1.07
  -2  14   0   20.32    1.06
  -2  14   0   18.75    1.23
   2  14   0   18.62    1.07
   2  14   0   18.80    1.33
   4 -14   0   16.59    1.01
  -4 -14   0   16.22    0.99
  -4 -14   0   15.41    1.00
  -4  14   0   15.21    1.10
  -4  14   0   16.94    0.97
   4  14   0   16.10    1.01
   4  14   0   14.18    1.27
  -6 -14   0   38.37    1.71
   6 -14   0   37.36    1.69
  -6 -14   0   36.79    1.64
  -6  14   0   37.80    1.83
   6  14   0   35.52    2.06
   6  14   0   38.04    1.72
  -6  14   0   37.12    1.60
  -8 -14   0   10.92    0.87
   8 -14   0   11.05    1.22
  -8 -14   0    8.85    1.04
   8  14   0    9.51    1.26
   8  14   0   10.01    0.94
  -8  14   0   10.81    0.86
  -8  14   0   10.76    1.12
 -10 -14   0   20.86    1.19
 -10 -14   0   18.74    1.24
  10 -14   0   21.25    1.25
  10  14   0   19.96    1.34
  10  14   0   17.99    1.88
 -10  14   0   17.06    1.36
 -12 -14   0    1.93    0.60
  12 -14   0    1.63    0.51
  12  14   0    0.55    0.54
 -12  14   0    1.19    0.74
  12  14   0   -0.25    0.96
 -14 -14   0   26.83    1.72
 -14 -14   0   28.07    1.87
 -14 -14   0   30.84    1.62
 -14  14   0   28.93    2.01
  14  14   0   29.93    1.82
  14  14   0   21.93    2.61
 -16 -14   0   11.11    1.70
 -16 -14   0   10.47    1.21
 -16  14   0   14.03    1.87
  16  14   0    9.98    1.91
  16  14   0   12.02    1.45
  -1 -15   0    0.38    0.40
  -1 -15   0    0.67    0.37
   1 -15   0    0.56    0.36
  -1  15   0    0.26    0.49
   1  15   0    0.50    0.53
  -1  15   0    1.22    0.42
   1  15   0    1.10    0.43
   3 -15   0    0.29    0.34
  -3 -15   0    0.90    0.40
  -3 -15   0    1.32    0.40
   3  15   0    0.36    0.41
  -3  15   0    0.43    0.40
  -3  15   0    1.03    0.53
   3  15   0    1.35    0.62
  -5 -15   0    3.16    0.55
  -5  15   0    2.56    0.53
   5  15   0    2.29    0.83
   5  15   0    2.83    0.55
  -7 -15   0   10.19    0.90
   7 -15   0   10.64    0.95
  -7 -15   0    9.83    0.98
   7  15   0    8.11    0.96
  -7  15   0    7.96    1.06
   7  15   0    8.99    1.26
  -7  15   0   10.24    0.92
   9 -15   0    0.84    0.44
  -9 -15   0    2.77    0.62
  -9 -15   0    0.93    0.49
   9  15   0    1.13    0.55
   9  15   0    1.10    0.86
  -9  15   0    3.00    0.68
 -11 -15   0    3.76    0.71
  11 -15   0    4.53    0.77
 -11 -15   0    5.76    0.76
  11  15   0    5.23    0.82
 -11  15   0    5.09    0.88
  11  15   0    5.53    1.20
 -13 -15   0   11.52    1.28
 -13 -15   0    8.27    0.92
  13  15   0    8.91    1.66
  13  15   0    8.30    1.05
 -13  15   0    8.94    1.17
 -15 -15   0    3.35    0.88
 -15  15   0    0.13    1.06
  15  15   0    2.64    1.71
   0 -16   0    1.05    0.44
   0  16   0    1.42    0.51
   0  16   0    0.51    0.59
  -2 -16   0    1.24    0.61
  -2 -16   0   -0.35    0.42
   2 -16   0   -0.12    0.43
  -2  16   0    0.58    0.45
  -2  16   0   -0.10    0.51
   2  16   0    0.93    0.48
   2  16   0    1.26    0.64
  -4 -16   0    1.45    0.45
   4 -16   0    2.18    0.50
  -4  16   0    1.45    0.59
   4  16   0    1.34    0.77
   4  16   0    1.71    0.54
  -4  16   0    1.70    0.54
   6 -16   0    5.41    0.71
  -6 -16   0    8.87    0.97
  -6 -16   0    7.19    0.94
   6  16   0    6.14    1.10
  -6  16   0    7.51    0.97
  -6  16   0    8.39    1.24
   6  16   0    6.12    1.12
   8 -16   0   -0.29    0.51
  -8 -16   0    0.91    0.57
  -8 -16   0    1.08    0.55
  -8  16   0    1.21    0.70
   8  16   0   -0.42    0.83
   8  16   0    0.90    0.61
 -10 -16   0    0.37    0.59
  10 -16   0    0.78    0.58
 -10 -16   0    0.16    0.52
  10  16   0    1.21    1.11
 -10  16   0    1.80    0.80
  10  16   0   -1.15    0.59
 -12 -16   0    9.03    1.00
  12 -16   0   10.27    1.22
 -12 -16   0   10.20    1.24
  12  16   0    8.58    1.07
  12  16   0    7.42    1.58
 -12  16   0    9.43    1.25
   1 -17   0    2.71    0.63
  -1 -17   0    3.03    0.61
  -1  17   0    4.06    0.69
  -1  17   0    1.08    0.71
   1  17   0    2.60    0.83
   1  17   0    3.97    0.69
  -3 -17   0   10.05    1.06
  -3 -17   0   10.46    1.11
   3 -17   0   10.06    1.02
   3  17   0   10.61    1.44
  -3  17   0    7.91    1.20
  -3  17   0   11.51    1.12
   3  17   0   12.06    1.73
  -5 -17   0   49.45    2.20
  -5 -17   0   48.14    2.16
   5 -17   0   44.00    2.14
  -5  17   0   44.38    2.34
   5  17   0   44.67    2.61
   5  17   0   48.23    2.27
  -7 -17   0    5.84    0.84
  -7 -17   0    5.37    0.82
   7 -17   0    7.56    1.05
   7  17   0    6.58    0.96
  -7  17   0    6.52    1.02
   7  17   0    6.27    1.20
   9 -17   0    0.71    0.65
  -9 -17   0    1.82    0.70
  -9 -17   0    2.63    0.73
   9  17   0    0.90    1.14
   9  17   0    2.92    0.78
  -9  17   0    0.55    0.81
  11 -17   0   21.44    1.62
 -11 -17   0   22.99    1.67
 -11 -17   0   23.33    1.67
 -11  17   0   25.15    1.93
  11  17   0   20.65    2.74
  11  17   0   22.93    1.78
   0 -18   0   19.88    1.42
   0  18   0   23.07    1.62
   0  18   0   21.04    1.81
   2 -18   0   16.30    1.29
  -2 -18   0   15.02    1.29
  -2  18   0   13.91    1.57
   2  18   0   18.41    1.46
   2  18   0   11.80    1.45
  -4 -18   0    2.65    0.74
   4 -18   0    2.49    0.64
  -4 -18   0    2.57    0.69
   4  18   0    3.16    1.06
  -4  18   0    2.52    0.86
   4  18   0    4.52    0.80
  -6 -18   0   15.33    1.42
  -6 -18   0   20.38    1.56
   6 -18   0   20.26    1.49
   6  18   0   16.46    1.59
   6  18   0   19.60    2.09
  -6  18   0   20.61    1.74
   8 -18   0   28.13    1.76
  -8 -18   0   31.03    1.82
  -8 -18   0   29.14    1.89
   8  18   0   29.03    1.98
  -8  18   0   27.85    2.02
   8  18   0   33.40    2.64
   1 -19   0   26.99    1.70
  -1 -19   0   27.82    1.72
  -1  19   0   24.99    2.10
   1  19   0   33.04    2.28
   1  19   0   29.75    2.77
   3 -19   0   70.44    3.07
  -3 -19   0   73.99    3.10
   3  19   0   81.64    3.26
   3  19   0   75.42    3.65
  -3  19   0   75.81    3.44
   5 -19   0   34.80    1.94
  -5 -19   0   34.98    1.99
  -5 -19   0   34.90    2.04
   5  19   0   36.31    2.12
  -5  19   0   31.32    2.24
   5  19   0   29.85    2.45
 -22   0   1    0.59    1.39
 -22   0   1   -0.92    0.81
 -22   0   1   -1.56    1.48
 -20   0   1    1.05    0.65
 -20   0   1   -1.04    1.02
 -20   0   1   -1.46    1.06
  20   0  -1   -0.75    0.49
 -18   0   1    0.65    0.49
  18   0  -1   -0.08    0.37
 -18   0   1   -0.23    0.79
 -18   0   1    0.31    0.82
  16   0  -1   -0.02    0.28
 -16   0   1   -0.17    0.34
 -16   0   1    0.47    0.59
  14   0  -1    0.04    0.21
 -14   0   1    0.59    0.47
 -14   0   1   -0.50    0.27
  12   0  -1    0.78    0.22
 -12   0   1    0.17    0.35
 -12   0   1    0.20    0.20
 -10   0   1    0.07    0.17
  10   0  -1    0.13    0.22
 -10   0   1    0.22    0.26
  -8   0   1    0.46    0.24
  -8   0   1    0.23    0.13
   8   0  -1   -0.10    0.13
  -6   0   1    0.12    0.09
  -6   0   1    0.12    0.15
   6   0  -1    0.18    0.17
  -6   0   1    0.02    0.13
   6   0  -1    0.20    0.10
  -4   0   1    0.06    0.09
   4   0  -1    0.06    0.05
  -4   0   1    0.10    0.06
   4   0  -1    0.01    0.10
  -2   0   1    0.16    0.05
  -2   0   1    0.10    0.05
   2   0  -1    0.11    0.03
   2   0  -1    0.15    0.04
   2   0   1    0.09    0.05
  -2   0  -1    0.03    0.06
   2   0   1    0.17    0.06
  -2   0  -1    0.20    0.07
  -2   0  -1    0.08    0.04
   2   0   1    0.13    0.07
   4   0   1    0.08    0.09
  -4   0  -1    0.14    0.11
   4   0   1    0.11    0.07
  -4   0  -1    0.01    0.05
   4   0   1    0.08    0.11
  -6   0  -1    0.27    0.10
  -6   0  -1   -0.05    0.13
   6   0   1    0.74    0.23
  -6   0  -1    0.52    0.23
   6   0   1    0.20    0.14
   6   0   1    0.17    0.11
  -8   0  -1    0.07    0.13
   8   0   1    0.10    0.16
   8   0   1    1.10    0.26
  -8   0  -1    0.31    0.22
 -10   0  -1   -0.05    0.17
 -10   0  -1    0.04    0.27
 -12   0  -1    0.30    0.33
 -12   0  -1    0.23    0.20
 -14   0  -1    0.72    0.45
 -14   0  -1    0.21    0.28
 -16   0  -1    0.90    0.41
 -16   0  -1   -0.27    0.56
 -18   0  -1    0.26    0.47
  18   0   1    0.08    0.38
 -18   0  -1    0.40    0.85
 -20   0  -1   -0.01    0.59
 -20   0  -1    2.06    1.16
  20   0   1    0.21    0.58
  22   0   1    0.40    0.72
 -22   0  -1    3.63    1.62
 -22   0  -1    0.61    0.81
 -22   0  -1    0.48    1.50
 -23  -1   1   22.74    2.95
 -23  -1   1   24.93    3.06
 -23  -1   1   23.00    2.02
 -23   1   1   24.80    2.07
 -23   1   1   23.44    2.95
 -23   1   1   24.00    3.31
 -21  -1   1    2.57    1.54
 -21  -1   1    2.18    0.79
 -21  -1   1    3.66    1.36
 -21   1   1    2.21    1.37
  21   1  -1    1.85    0.68
 -21   1   1    3.33    0.80
 -21   1   1    4.29    1.32
  19  -1  -1    0.08    0.41
 -19  -1   1    0.16    0.53
  19   1  -1    0.96    0.48
 -19   1   1   -1.08    0.86
 -19   1   1   -0.09    0.99
 -19   1   1    0.26    0.52
  17  -1  -1    2.33    0.43
 -17  -1   1    2.99    0.86
 -17  -1   1    2.33    0.52
 -17  -1   1    3.15    0.91
 -17   1   1    2.82    0.59
 -17   1   1    1.39    0.76
  17   1  -1    2.63    0.47
 -15  -1   1   14.42    0.96
 -15  -1   1   14.32    1.34
  15  -1  -1   13.79    0.77
 -15   1   1   14.78    0.96
  15   1  -1   14.71    0.86
 -15   1   1   14.38    1.26
  13  -1  -1    0.54    0.21
  13  -1  -1    1.11    0.43
 -13  -1   1    0.55    0.28
 -13  -1   1    0.90    0.46
 -13   1   1    1.39    0.31
  13   1  -1    0.47    0.24
 -13   1   1    0.56    0.38
 -11  -1   1    6.23    0.73
 -11  -1   1    6.19    0.52
  11  -1  -1    6.12    0.45
  11  -1  -1    5.96    0.50
  11   1  -1    6.31    0.47
 -11   1   1    6.06    0.68
 -11   1   1    5.64    0.50
  -9  -1   1   26.32    1.09
   9  -1  -1   27.55    1.00
   9  -1  -1   25.47    0.98
   9   1  -1   26.31    1.05
  -9   1   1   25.53    1.05
   9   1  -1   26.84    1.06
  -9   1   1   26.04    1.24
   7  -1  -1  174.99    5.09
  -7  -1   1  167.25    5.36
   7  -1  -1  169.44    5.22
  -7  -1   1  156.79    5.17
  -7  -1   1  178.61    5.33
  -7   1   1  160.60    5.29
  -7   1   1  160.17    5.13
  -7   1   1  184.34    5.34
   7   1  -1  152.07    5.14
   7   1  -1  168.51    5.15
   7   1  -1  167.76    5.31
   5  -1  -1   80.64    2.40
   5  -1  -1   81.60    2.49
   5  -1  -1   77.57    2.40
  -5  -1   1   71.07    2.46
  -5  -1   1   74.10    2.58
  -5   1   1   74.99    2.42
   5   1  -1   82.13    2.59
   5   1  -1   74.89    2.46
  -5   1   1   79.71    2.44
   5   1  -1   80.25    2.46
  -5   1   1   79.17    2.54
  -3  -1   1   21.97    0.85
   3  -1  -1   23.03    0.72
  -3  -1   1   22.27    0.79
  -3  -1   1   23.97    0.89
   3  -1  -1   23.60    0.76
   3  -1  -1   22.69    0.72
   3   1  -1   23.58    0.86
  -3   1   1   23.69    0.77
   3   1  -1   22.65    0.78
  -3   1   1   21.93    0.78
   3   1  -1   21.89    0.77
   3   1  -1   23.94    0.85
  -3   1   1   22.16    0.73
  -1  -1   1   46.89    1.44
  -1  -1   1   45.74    1.40
  -1  -1   1   44.14    1.35
  -1  -1   1   42.74    1.41
   1  -1  -1   44.90    1.38
   1  -1  -1   44.94    1.37
  -1  -1   1   46.00    1.43
   1   1  -1   46.04    1.35
  -1   1   1   45.78    1.37
   1   1  -1   46.89    1.44
   1   1  -1   44.41    1.39
  -1   1   1   43.72    1.38
  -1  -1  -1   53.73    1.73
   1  -1   1   54.63    1.71
   1  -1   1   54.32    1.67
  -1  -1  -1   53.28    1.69
  -1  -1  -1   58.04    1.73
  -1   1  -1   58.37    1.76
  -1   1  -1   55.25    1.73
   1   1   1   56.19    1.72
  -1   1  -1   53.00    1.69
   1   1   1   52.84    1.73
  -1   1  -1   55.66    1.67
  -1   1  -1   58.68    1.72
  -3  -1  -1   52.83    1.72
   3  -1   1   51.71    1.69
   3  -1   1   54.10    1.64
  -3  -1  -1   53.89    1.72
   3  -1   1   53.61    1.71
  -3  -1  -1   50.49    1.74
  -3   1  -1   51.24    1.64
  -3   1  -1   51.15    1.71
   3   1   1   53.73    1.66
   3   1   1   48.72    1.73
  -3   1  -1   53.53    1.72
  -3   1  -1   54.78    1.62
   3   1   1   45.79    1.68
   5  -1   1    8.66    0.40
  -5  -1  -1    8.15    0.52
  -5  -1  -1    9.82    0.53
   5  -1   1    9.19    0.50
   5  -1   1    7.81    0.46
  -5   1  -1    8.19    0.49
  -5   1  -1    8.81    0.38
   5   1   1    8.78    0.52
   5   1   1    8.93    0.43
   5   1   1    8.60    0.48
  -5   1  -1    7.95    0.40
  -7  -1  -1    4.01    0.33
  -7  -1  -1    3.91    0.49
   7  -1   1    3.57    0.48
  -7  -1  -1    4.17    0.46
   7  -1   1    3.84    0.38
   7  -1   1    3.77    0.31
  -7   1  -1    4.39    0.31
   7   1   1    4.53    0.41
   7   1   1    3.92    0.47
  -7   1  -1    4.38    0.43
   7   1   1    4.85    0.36
  -7   1  -1    3.91    0.31
  -7   1  -1    4.48    0.51
  -9  -1  -1    1.39    0.28
  -9  -1  -1    1.30    0.40
   9  -1   1    1.56    0.26
  -9   1  -1    1.45    0.26
  -9   1  -1    1.03    0.32
 -11  -1  -1  144.00    4.85
 -11  -1  -1  138.36    4.54
 -11   1  -1  138.78    4.51
 -11   1  -1  135.04    4.78
 -13  -1  -1    0.86    0.31
 -13  -1  -1    0.38    0.43
 -13   1  -1    0.40    0.25
 -13   1  -1    0.25    0.36
 -15  -1  -1   12.93    0.94
 -15  -1  -1   12.28    1.35
 -15   1  -1   11.89    1.24
 -15   1  -1   12.37    0.90
 -17  -1  -1   10.72    1.01
 -17  -1  -1    9.37    1.47
  17  -1   1   12.18    0.83
 -17   1  -1    9.09    1.39
 -17   1  -1    9.52    0.93
  17   1   1   11.13    0.85
 -19  -1  -1   10.63    1.68
  19  -1   1   15.07    1.06
 -19  -1  -1   15.92    2.55
 -19  -1  -1   14.98    1.30
 -19   1  -1   13.67    1.88
  19   1   1   14.37    1.09
 -19   1  -1   14.33    1.66
 -21  -1  -1    0.34    1.35
  21  -1   1    0.87    0.68
 -21  -1  -1    1.35    1.37
 -21  -1  -1    0.06    0.70
 -21   1  -1    1.38    1.32
  21   1   1    2.00    0.68
 -21   1  -1    1.37    0.72
 -23  -1  -1    3.48    1.04
 -23  -1  -1    4.84    1.87
 -23  -1  -1    4.11    1.91
 -23   1  -1    3.20    1.84
 -23   1  -1    2.45    0.97
 -23   1  -1    3.75    1.72
 -22  -2   1    1.18    0.84
 -22  -2   1    1.98    1.61
 -22  -2   1    1.48    1.57
 -22   2   1   -0.25    1.59
  22   2  -1    2.16    0.78
 -22   2   1    2.91    1.43
 -22   2   1    3.51    0.92
 -20  -2   1   18.01    2.28
 -20  -2   1   18.02    1.52
 -20  -2   1   19.81    2.45
 -20   2   1   18.89    1.52
 -20   2   1   20.26    2.10
  18  -2  -1   43.10    1.69
 -18  -2   1   47.32    2.80
 -18  -2   1   42.76    2.11
 -18  -2   1   45.29    2.72
 -18   2   1   45.18    2.06
 -18   2   1   42.67    2.54
  18   2  -1   45.50    1.89
 -16  -2   1   36.40    1.77
  16  -2  -1   37.36    1.44
 -16  -2   1   38.48    2.24
 -16  -2   1   40.50    2.31
 -16   2   1   38.93    1.74
 -16   2   1   34.33    2.04
  16   2  -1   37.41    2.12
  16   2  -1   39.80    1.63
  14  -2  -1    0.17    0.21
 -14  -2   1    0.25    0.28
 -14  -2   1    0.00    0.50
 -14  -2   1    0.47    0.53
 -14   2   1    0.03    0.28
 -14   2   1    1.17    0.47
  14   2  -1    0.44    0.27
  12  -2  -1   17.53    0.83
  12  -2  -1   17.93    0.79
 -12  -2   1   18.66    1.25
 -12  -2   1   17.95    0.96
 -12  -2   1   19.46    1.25
 -12   2   1   17.85    1.14
 -12   2   1   17.10    0.89
  12   2  -1   18.36    0.90
 -10  -2   1   36.39    1.47
 -10  -2   1   38.20    1.72
  10  -2  -1   36.69    1.30
 -10  -2   1   35.52    1.69
  10  -2  -1   39.10    1.32
 -10   2   1   37.41    1.41
  10   2  -1   36.73    1.42
 -10   2   1   38.68    1.63
   8  -2  -1  342.88   10.63
  -8  -2   1  367.12   11.02
   8  -2  -1  379.85   10.63
  -8  -2   1  357.82   11.00
  -8  -2   1  358.49   10.80
   8   2  -1  326.52   10.74
  -8   2   1  352.96   10.90
   8   2  -1  380.67   10.77
  -8   2   1  332.78   10.70
  -6  -2   1    0.11    0.16
  -6  -2   1    0.31    0.12
   6  -2  -1    0.20    0.08
   6  -2  -1    0.21    0.14
  -6  -2   1    0.47    0.19
  -6  -2   1    0.16    0.17
  -6   2   1   -0.06    0.12
  -6   2   1    0.21    0.20
   6   2  -1    0.36    0.21
   6   2  -1    0.14    0.13
  -6   2   1    0.29    0.12
   6   2  -1    0.21    0.10
  -4  -2   1  342.21   10.69
  -4  -2   1  356.10   10.69
   4  -2  -1  359.66   10.50
   4  -2  -1  348.35   10.62
   4  -2  -1  358.08   10.52
  -4  -2   1  336.61   10.58
   4   2  -1  372.88   10.70
  -4   2   1  362.13   10.54
  -4   2   1  341.72   10.55
   4   2  -1  366.69   10.58
  -4   2   1  358.90   10.54
  -4   2   1  355.47   10.54
   4   2  -1  333.26   10.57
  -2  -2   1   44.10    1.49
   2  -2  -1   41.93    1.38
  -2  -2   1   41.98    1.47
  -2  -2   1   45.96    1.41
  -2  -2   1   42.70    1.35
  -2   2   1   46.39    1.39
   2   2  -1   41.76    1.40
   2   2  -1   45.04    1.49
   2   2  -1   46.73    1.49
  -2   2   1   42.71    1.38
   2   2  -1   46.05    1.42
   0  -2   1  181.35    5.50
   0  -2   1  187.96    5.51
   0  -2  -1  176.86    5.51
   0  -2   1  181.56    5.59
   0  -2   1  186.03    5.50
   0  -2  -1  178.41    5.50
   0  -2   1  188.81    5.56
   0  -2   1  181.83    5.53
   0  -2  -1  188.20    5.50
   0  -2  -1  185.37    5.49
   0   2  -1  187.48    5.59
   0   2  -1  185.94    5.50
   0   2   1  182.99    5.50
   0   2   1  189.33    5.50
   0   2  -1  177.03    5.51
   0   2  -1  186.31    5.57
   0   2  -1  188.21    5.50
   0   2   1  191.42    5.49
   0   2   1  185.00    5.51
   0   2   1  179.85    5.51
  -2  -2  -1   17.10    0.60
  -2  -2  -1   14.89    0.62
  -2  -2  -1   15.46    0.56
   2  -2   1   15.76    0.55
   2  -2   1   15.43    0.57
   2  -2   1   16.12    0.60
   2  -2   1   14.80    0.54
  -2  -2  -1   15.78    0.55
  -2  -2  -1   15.67    0.54
  -2   2  -1   16.56    0.65
  -2   2  -1   15.92    0.54
  -2   2  -1   15.41    0.55
  -2   2  -1   15.91    0.58
   2   2   1   15.31    0.63
   2   2   1   14.99    0.58
  -2   2  -1   14.79    0.60
   2   2   1   16.16    0.57
   4  -2   1   50.16    1.64
   4  -2   1   47.80    1.55
   4  -2   1   44.00    1.62
  -4  -2  -1   46.06    1.59
   4  -2   1   49.60    1.56
  -4  -2  -1   47.14    1.71
  -4  -2  -1   50.78    1.67
  -4   2  -1   48.34    1.57
   4   2   1   46.85    1.64
   4   2   1   52.17    1.74
   4   2   1   51.04    1.61
  -4   2  -1   46.35    1.65
  -4   2  -1   48.17    1.55
  -4   2  -1   51.87    1.68
   6  -2   1  268.66    8.03
  -6  -2  -1  279.18    8.23
  -6  -2  -1  243.19    8.09
   6  -2   1  244.88    8.15
  -6  -2  -1  266.18    8.29
   6  -2   1  270.06    8.16
   6   2   1  251.49    8.18
  -6   2  -1  272.74    8.04
   6   2   1  283.25    8.30
  -6   2  -1  267.17    8.22
  -6   2  -1  288.96    8.25
   6   2   1  280.67    8.11
  -6   2  -1  254.66    8.06
  -8  -2  -1   33.18    1.49
   8  -2   1   35.45    1.23
  -8  -2  -1   33.21    1.31
  -8   2  -1   34.85    1.27
  -8   2  -1   33.87    1.45
 -10  -2  -1   30.00    1.53
  10  -2   1   30.10    1.17
 -10  -2  -1   30.71    1.27
 -10   2  -1   29.12    1.26
 -10   2  -1   29.70    1.43
 -12  -2  -1   75.29    3.03
 -12  -2  -1   74.29    2.70
 -12   2  -1   72.68    2.94
 -12   2  -1   76.85    2.66
 -14  -2  -1   73.29    2.73
 -14  -2  -1   68.98    3.08
 -14   2  -1   68.74    2.98
 -14   2  -1   76.42    2.69
 -16  -2  -1    5.23    0.75
 -16  -2  -1    4.92    1.02
  16   2   1    4.10    0.63
 -16   2  -1    6.24    0.99
 -16   2  -1    4.68    0.69
 -18  -2  -1    7.13    0.95
 -18  -2  -1    7.05    1.24
  18  -2   1    7.00    0.75
 -18  -2  -1    8.91    1.38
  18   2   1    6.67    0.85
 -18   2  -1    8.46    0.95
 -18   2  -1    8.05    1.25
 -20  -2  -1    6.97    1.02
 -20  -2  -1    6.97    1.59
 -20  -2  -1    8.07    1.52
  20  -2   1    7.33    0.93
  20   2   1    7.02    1.00
 -20   2  -1    5.87    1.33
 -20   2  -1    9.66    1.30
 -22  -2  -1   26.65    2.08
 -22  -2  -1   30.85    3.29
 -22  -2  -1   25.21    3.40
 -22   2  -1   30.68    2.98
  22   2   1   28.05    1.76
 -22   2  -1   25.85    1.99
 -23  -3   1   28.93    2.25
 -23  -3   1   26.53    3.64
 -23  -3   1   29.73    3.43
 -23   3   1   28.89    2.21
 -23   3   1   31.51    3.55
 -23   3   1   32.14    3.07
 -21  -3   1   55.25    3.69
 -21  -3   1   57.97    3.71
 -21  -3   1   54.38    2.76
 -21   3   1   57.81    2.69
 -21   3   1   56.75    3.35
  21   3  -1   56.41    2.43
 -19  -3   1   65.76    3.95
 -19  -3   1   69.40    2.95
 -19   3   1   64.83    3.33
  19   3  -1   69.00    2.66
 -19   3   1   71.81    2.88
 -17  -3   1   29.58    2.17
 -17  -3   1   32.70    2.23
 -17  -3   1   28.34    1.58
  17  -3  -1   27.41    1.16
  17   3  -1   30.64    1.45
 -17   3   1   28.48    1.51
 -17   3   1   29.77    1.94
 -15  -3   1   90.42    3.77
 -15  -3   1   90.27    3.33
 -15  -3   1   89.58    3.76
  15  -3  -1   87.26    2.90
  15   3  -1   92.36    3.19
  15   3  -1   90.28    3.58
 -15   3   1   88.49    3.57
 -15   3   1   92.93    3.24
 -13  -3   1  124.34    4.66
  13  -3  -1  113.75    4.19
  13  -3  -1  134.58    4.01
 -13  -3   1  131.83    4.35
 -13  -3   1  131.19    4.70
 -13   3   1  128.13    4.22
  13   3  -1  127.58    4.22
 -13   3   1  129.78    4.55
 -11  -3   1   53.88    2.35
  11  -3  -1   53.74    1.83
 -11  -3   1   54.31    2.09
  11  -3  -1   60.09    1.86
 -11  -3   1   57.16    2.38
 -11   3   1   55.84    2.00
  11   3  -1   55.10    2.04
 -11   3   1   56.99    2.24
  -9  -3   1   24.94    1.32
   9  -3  -1   27.20    0.90
  -9  -3   1   25.62    1.11
  -9  -3   1   23.84    1.32
   9  -3  -1   26.01    0.90
   9   3  -1   23.97    1.06
  -9   3   1   25.66    1.18
  -9   3   1   26.02    1.00
   7  -3  -1  102.95    3.08
   7  -3  -1   96.96    3.07
   7  -3  -1   98.98    3.17
  -7  -3   1  104.52    3.36
  -7  -3   1  100.95    3.46
  -7  -3   1   99.22    3.43
  -7  -3   1  100.37    3.28
  -7   3   1  106.98    3.37
   7   3  -1  101.07    3.26
   7   3  -1  103.91    3.46
  -7   3   1  101.86    3.30
  -7   3   1  101.53    3.16
   7   3  -1   93.80    3.24
  -5  -3   1  368.55   11.21
  -5  -3   1  356.74   11.36
  -5  -3   1  372.64   11.35
  -5  -3   1  394.14   11.26
   5  -3  -1  392.42   11.10
   5  -3  -1  350.39   11.16
  -5  -3   1  361.59   11.23
   5   3  -1  390.63   11.39
   5   3  -1  390.22   11.23
   5   3  -1  346.78   11.21
  -5   3   1  378.55   11.17
  -5   3   1  399.77   11.26
  -5   3   1  358.43   11.10
  -5   3   1  377.98   11.17
  -5   3   1  358.88   11.18
  -3  -3   1  100.53    3.23
  -3  -3   1  106.37    3.33
  -3  -3   1   99.73    3.15
  -3  -3   1  101.70    3.33
   3  -3  -1   99.66    3.19
   3  -3  -1  101.53    3.20
  -3   3   1  109.97    3.20
   3   3  -1  105.10    3.34
  -3   3   1  103.22    3.15
   3   3  -1  107.95    3.15
   3   3  -1   96.13    3.22
   3   3  -1  111.93    3.33
   3   3  -1  110.22    3.24
  -3   3   1  102.74    3.11
  -1  -3   1   13.68    0.59
  -1  -3   1   13.49    0.52
   1  -3  -1   14.10    0.51
  -1  -3   1   13.99    0.52
  -1  -3   1   13.94    0.59
  -1  -3   1   14.81    0.59
   1  -3  -1   13.75    0.51
  -1  -3   1   13.17    0.49
   1   3  -1   14.22    0.60
   1   3  -1   14.34    0.49
  -1   3   1   14.57    0.51
   1  -3   1  284.18    8.57
   1  -3   1  282.75    8.45
  -1  -3  -1  281.80    8.42
  -1  -3  -1  274.62    8.40
   1  -3   1  285.16    8.53
  -1  -3  -1  283.70    8.52
   1  -3   1  285.59    8.41
  -1  -3  -1  276.98    8.36
   1  -3   1  274.15    8.50
  -1  -3  -1  280.47    8.40
   1   3   1  297.57    8.41
  -1   3  -1  292.62    8.38
   1   3   1  282.69    8.37
  -1   3  -1  274.78    8.51
  -1   3  -1  283.19    8.40
  -1   3  -1  274.71    8.62
   1   3   1  277.51    8.46
   1   3   1  273.02    8.39
  -1   3  -1  286.56    8.40
   1   3   1  281.28    8.40
  -1   3  -1  282.06    8.47
   3  -3   1  465.73   13.49
  -3  -3  -1  438.36   13.62
   3  -3   1  458.02   13.69
  -3  -3  -1  461.41   13.56
  -3  -3  -1  440.25   13.57
  -3  -3  -1  456.75   13.49
   3  -3   1  430.60   13.55
  -3  -3  -1  439.34   13.62
   3  -3   1  444.46   13.56
  -3   3  -1  478.65   13.50
  -3   3  -1  466.81   13.59
  -3   3  -1  465.71   13.44
   3   3   1  473.49   13.60
  -3   3  -1  431.00   13.51
   3   3   1  457.51   13.47
   3   3   1  422.95   13.58
  -3   3  -1  447.11   13.66
   5  -3   1  186.43    6.12
  -5  -3  -1  205.57    6.27
  -5  -3  -1  184.31    6.09
   5  -3   1  204.93    6.12
  -5  -3  -1  210.94    6.19
  -5  -3  -1  202.01    6.13
   5  -3   1  203.55    6.02
   5  -3   1  190.58    6.04
   5   3   1  209.70    6.12
  -5   3  -1  192.81    6.17
  -5   3  -1  219.86    6.21
   5   3   1  210.96    6.29
  -5   3  -1  206.19    6.05
   5   3   1  184.63    6.14
  -5   3  -1  180.66    6.04
  -7  -3  -1    5.96    0.44
   7  -3   1    6.62    0.38
  -7  -3  -1    6.04    0.57
  -7  -3  -1    6.43    0.60
  -7   3  -1    6.38    0.39
  -7   3  -1    8.48    0.56
   7   3   1    8.40    0.67
  -7   3  -1    7.42    0.61
   7   3   1    6.25    0.48
   9  -3   1  232.92    6.78
  -9  -3  -1  224.92    7.19
  -9  -3  -1  220.84    6.92
  -9   3  -1  216.60    7.07
  -9   3  -1  213.82    6.84
 -11  -3  -1  124.14    4.11
 -11  -3  -1  123.18    4.42
  11  -3   1  126.62    3.92
 -11   3  -1  118.16    4.01
 -11   3  -1  124.17    4.31
 -13  -3  -1   26.17    1.63
 -13  -3  -1   25.84    1.29
 -13   3  -1   26.11    1.22
 -13   3  -1   26.37    1.52
 -15  -3  -1    0.55    0.59
 -15  -3  -1    1.28    0.40
 -15  -3  -1    0.71    0.71
 -15   3  -1    0.47    0.33
 -15   3  -1    0.52    0.51
 -17  -3  -1   45.98    2.67
 -17  -3  -1   43.33    2.09
  17  -3   1   47.14    1.76
 -17  -3  -1   44.75    2.57
  17   3   1   48.30    1.97
 -17   3  -1   44.24    2.02
 -17   3  -1   44.53    2.48
 -19  -3  -1   76.69    3.84
 -19  -3  -1   75.18    3.94
 -19  -3  -1   72.44    3.16
  19  -3   1   79.19    2.68
 -19   3  -1   75.00    3.14
  19   3   1   76.44    2.92
 -19   3  -1   74.77    3.64
 -21  -3  -1   39.11    3.29
 -21  -3  -1   35.35    3.26
 -21  -3  -1   30.16    2.08
 -21   3  -1   34.04    2.12
  21   3   1   33.59    1.82
 -21   3  -1   33.15    2.71
 -23  -3  -1    1.21    0.96
 -23  -3  -1   -1.82    1.85
 -23  -3  -1   -0.56    1.90
 -23   3  -1    3.94    1.03
 -23   3  -1    2.62    1.69
  23   3   1    0.18    0.83
 -22  -4   1   11.54    2.18
 -22  -4   1    6.45    1.12
 -22  -4   1    9.17    2.00
 -22   4   1   10.16    1.68
 -22   4   1    8.78    1.21
  22   4  -1    8.33    1.05
 -20  -4   1   27.80    1.87
 -20  -4   1   29.24    2.75
 -20  -4   1   31.27    2.83
 -20  -4   1   31.84    1.51
 -20   4   1   29.54    2.36
  20   4  -1   30.37    1.65
 -20   4   1   31.60    2.21
 -18  -4   1   94.68    3.17
 -18  -4   1   91.11    4.09
 -18  -4   1   92.21    4.15
 -18  -4   1   92.80    4.19
 -18   4   1   79.33    4.43
 -18   4   1   93.61    3.46
  18   4  -1   92.10    3.35
 -16  -4   1   77.79    3.47
 -16  -4   1   75.51    3.02
 -16  -4   1   80.57    3.54
 -16   4   1   77.36    2.91
 -16   4   1   76.88    3.28
  16   4  -1   76.70    3.43
  16   4  -1   78.13    2.87
 -14  -4   1    9.99    1.20
 -14  -4   1   11.32    0.87
 -14  -4   1   11.68    1.26
  14  -4  -1   10.88    0.53
  14   4  -1   10.34    0.77
 -14   4   1   11.93    1.03
 -14   4   1   11.30    0.77
  14   4  -1   11.95    1.27
 -12  -4   1  107.22    3.97
  12  -4  -1  107.87    3.25
 -12  -4   1  105.42    3.91
  12  -4  -1  102.39    3.23
 -12  -4   1  106.07    3.64
  12   4  -1  104.49    3.55
 -12   4   1  101.82    3.75
 -12   4   1  104.12    3.48
 -10  -4   1  222.22    7.28
 -10  -4   1  223.94    7.01
 -10  -4   1  224.55    6.79
  10  -4  -1  221.21    6.66
 -10  -4   1  228.60    7.25
 -10   4   1  220.73    6.85
  10   4  -1  211.29    6.94
 -10   4   1  225.78    7.08
  -8  -4   1  114.02    4.03
  -8  -4   1  116.58    3.64
  -8  -4   1  118.86    4.00
  -8  -4   1  116.67    3.82
  -8   4   1  119.28    3.68
   8   4  -1  118.67    3.81
  -8   4   1  117.42    3.84
  -6  -4   1    8.82    0.64
  -6  -4   1    9.52    0.59
  -6  -4   1    8.99    0.40
  -6  -4   1    8.09    0.60
  -6  -4   1    8.68    0.51
   6  -4  -1    9.51    0.39
   6  -4  -1    8.83    0.46
   6   4  -1    9.41    0.69
  -6   4   1   10.63    0.59
   6   4  -1    8.77    0.53
  -6   4   1    8.31    0.48
  -6   4   1    9.49    0.41
  -6   4   1    8.40    0.47
  -4  -4   1   80.86    2.63
  -4  -4   1   74.67    2.51
  -4  -4   1   81.22    2.72
  -4  -4   1   82.07    2.75
  -4  -4   1   84.37    2.61
   4   4  -1   85.10    2.72
  -4   4   1   83.26    2.57
  -4   4   1   77.66    2.48
   4   4  -1   83.70    2.63
  -4   4   1   78.32    2.54
   4   4  -1   77.30    2.61
   4   4  -1   79.09    2.74
   4   4  -1   85.97    2.77
  -4   4   1   87.02    2.61
  -2  -4   1  194.63    5.97
  -2  -4   1  184.22    5.82
  -2  -4   1  181.41    5.87
  -2  -4   1  194.38    5.99
   2  -4  -1  189.34    5.86
   2  -4  -1  192.43    5.86
  -2   4   1  201.83    5.86
   2   4  -1  184.23    5.88
  -2   4   1  194.40    5.77
  -2   4   1  201.44    5.86
   2   4  -1  206.69    5.90
  -2   4   1  185.59    5.81
   2   4  -1  209.42    5.99
   2   4  -1  199.38    5.82
   2   4  -1  187.89    5.98
   2   4  -1  195.16    5.99
   0  -4   1  224.48    7.18
   0  -4   1  237.98    7.30
   0  -4   1  236.45    7.17
   0  -4   1  232.35    7.19
   0  -4  -1  228.46    7.18
   0  -4   1  243.88    7.12
   0  -4   1  257.86    7.27
   0  -4  -1  230.92    7.19
   0   4   1  241.73    7.15
   0   4  -1  243.72    7.17
   0   4   1  248.58    7.20
   0   4   1  242.37    7.19
   0   4  -1  236.39    7.28
   0   4  -1  219.10    7.18
   0   4  -1  246.95    7.32
   0   4  -1  241.41    7.20
   0   4  -1  249.19    7.29
   0   4   1  236.10    7.21
   0   4   1  246.94    7.19
   0   4  -1  249.32    7.20
   0   4   1  235.49    7.12
  -2  -4  -1   22.45    0.91
   2  -4   1   23.31    0.84
  -2  -4  -1   22.65    0.81
  -2  -4  -1   24.96    0.84
   2  -4   1   23.16    0.81
  -2  -4  -1   23.12    0.84
   2  -4   1   23.02    0.81
  -2  -4  -1   23.95    0.84
   2  -4   1   24.81    0.89
  -2   4  -1   23.16    0.90
  -2   4  -1   23.42    0.83
  -2   4  -1   23.59    0.85
   2   4   1   25.54    0.87
   2   4   1   23.94    0.95
   2   4   1   23.06    0.83
  -2   4  -1   25.41    0.83
  -2   4  -1   24.35    0.84
   2   4   1   24.92    0.84
  -2   4  -1   24.30    0.98
  -4  -4  -1   56.80    1.89
   4  -4   1   58.92    1.91
   4  -4   1   53.75    1.89
  -4  -4  -1   57.29    1.91
  -4  -4  -1   54.32    1.85
   4  -4   1   60.18    1.82
  -4  -4  -1   55.75    2.03
   4  -4   1   58.73    1.87
  -4  -4  -1   59.06    1.94
  -4   4  -1   56.41    1.86
  -4   4  -1   58.34    1.87
  -4   4  -1   61.03    1.94
  -4   4  -1   60.04    2.09
  -4   4  -1   59.91    1.90
   4   4   1   58.47    1.92
  -4   4  -1   53.58    1.94
   4   4   1   58.79    2.07
  -6  -4  -1  550.44   17.33
  -6  -4  -1  542.22   17.06
  -6  -4  -1  540.06   17.15
   6  -4   1  581.29   17.15
  -6  -4  -1  605.31   17.25
  -6  -4  -1  563.93   17.18
   6  -4   1  597.76   17.03
   6  -4   1  536.57   17.08
  -6   4  -1  575.39   17.09
  -6   4  -1  564.26   17.24
   6   4   1  641.94   17.31
   6   4   1  524.22   17.17
  -6   4  -1  639.76   17.28
  -6   4  -1  506.54   17.06
   6   4   1  622.15   17.41
  -8  -4  -1  148.28    4.72
  -8  -4  -1  150.13    4.95
  -8  -4  -1  145.07    4.79
   8  -4   1  146.93    4.74
   8   4   1  150.88    4.99
  -8   4  -1  143.56    4.83
  -8   4  -1  149.70    4.63
 -10  -4  -1    9.01    1.07
  10  -4   1   10.07    0.57
 -10  -4  -1    9.81    0.85
 -10  -4  -1   10.28    0.67
 -10   4  -1    9.50    0.76
 -12  -4  -1   38.43    2.00
 -12  -4  -1   39.10    1.68
  12  -4   1   40.30    1.49
 -12  -4  -1   39.66    1.89
 -12   4  -1   42.38    1.90
 -12   4  -1   40.20    1.60
 -14  -4  -1   88.50    3.55
 -14  -4  -1   80.31    3.07
 -14  -4  -1   82.28    3.37
 -14   4  -1   82.63    3.35
 -14   4  -1   83.24    2.98
 -16  -4  -1   78.77    3.00
 -16  -4  -1   77.17    3.51
  16  -4   1   75.53    2.55
 -16  -4  -1   79.74    3.38
 -16   4  -1   68.76    2.81
  16   4   1   74.22    2.81
 -16   4  -1   73.15    3.26
 -18  -4  -1   22.40    2.14
  18  -4   1   21.22    1.03
 -18  -4  -1   20.41    2.20
 -18  -4  -1   19.37    1.50
  18   4   1   19.44    1.50
 -18   4  -1   16.89    2.16
 -18   4  -1   18.34    1.32
 -20  -4  -1   14.55    2.10
 -20  -4  -1   15.81    2.03
 -20  -4  -1   15.14    1.17
 -20  -4  -1   15.99    1.55
 -20   4  -1   15.60    2.02
  20   4   1   15.71    1.27
 -20   4  -1   16.29    1.51
 -22  -4  -1   90.30    3.27
 -22  -4  -1   80.19    3.67
 -22  -4  -1   86.62    4.90
 -22  -4  -1   88.05    5.08
  22   4   1   80.13    3.36
 -22   4  -1   81.67    4.33
 -22   4  -1   86.04    3.68
 -21  -5   1   98.83    5.04
 -21  -5   1   95.42    5.03
 -21  -5   1   96.10    4.02
 -21   5   1   91.66    4.43
 -21   5   1  101.41    3.93
  21   5  -1   98.56    3.70
 -19  -5   1   20.02    1.13
 -19  -5   1   22.24    3.32
 -19  -5   1   19.00    1.52
  19   5  -1   19.33    1.34
 -19   5   1   16.89    1.78
 -19   5   1   18.53    1.42
 -17  -5   1    5.38    0.63
 -17  -5   1    4.74    1.04
 -17  -5   1    3.70    1.00
 -17  -5   1    2.47    0.60
 -17   5   1    4.21    0.84
 -17   5   1    3.79    0.63
  17   5  -1    4.35    0.62
  17   5  -1    3.36    1.24
 -15  -5   1   91.97    3.83
 -15  -5   1   87.70    3.33
 -15  -5   1   89.33    3.73
 -15  -5   1   91.12    3.01
  15   5  -1   88.38    3.21
 -15   5   1   87.94    3.52
 -15   5   1   88.12    3.16
  15   5  -1   88.37    3.67
 -13  -5   1  180.08    5.90
 -13  -5   1  182.53    6.21
 -13  -5   1  181.38    5.59
 -13  -5   1  175.64    6.26
  13   5  -1  177.06    5.80
 -13   5   1  175.75    5.71
  13   5  -1  182.84    6.53
 -13   5   1  174.99    6.02
 -11  -5   1   90.83    3.43
 -11  -5   1   93.55    3.22
 -11  -5   1   90.70    3.51
 -11  -5   1   91.44    2.96
 -11   5   1   91.28    3.03
  11   5  -1   90.61    3.15
  11   5  -1   88.81    3.44
 -11   5   1   93.87    3.28
  -9  -5   1   17.70    0.74
  -9  -5   1   18.37    1.17
  -9  -5   1   17.83    0.92
   9   5  -1   18.17    0.89
  -9   5   1   18.56    0.94
  -9   5   1   18.77    0.78
   9   5  -1   17.72    1.09
  -7  -5   1  131.59    4.51
   7  -5  -1  140.63    4.45
  -7  -5   1  140.35    4.74
  -7  -5   1  139.12    4.36
  -7  -5   1  137.15    4.65
  -7  -5   1  147.02    4.57
  -7   5   1  138.90    4.48
   7   5  -1  139.00    4.70
   7   5  -1  147.13    4.77
  -7   5   1  158.36    4.59
  -7   5   1  138.65    4.35
  -5  -5   1  391.05   11.94
  -5  -5   1  422.40   12.06
  -5  -5   1  391.22   12.17
  -5  -5   1  392.48   12.07
  -5  -5   1  400.97   12.24
   5  -5  -1  374.23   12.00
   5   5  -1  394.53   12.23
  -5   5   1  414.45   12.08
  -5   5   1  436.14   12.06
   5   5  -1  372.33   12.05
  -5   5   1  394.83   12.00
  -5   5   1  393.73   11.90
   5   5  -1  418.76   12.17
  -5   5   1  383.29   11.98
   5   5  -1  417.82   12.27
   3  -5  -1  251.33    7.84
  -3  -5   1  274.36    7.83
  -3  -5   1  253.42    7.88
  -3  -5   1  256.31    8.01
  -3  -5   1  251.50    7.97
   3  -5  -1  242.34    7.85
  -3  -5   1  245.62    7.79
   3   5  -1  274.56    8.04
   3   5  -1  243.62    7.87
   3   5  -1  278.49    7.80
  -3   5   1  261.48    7.84
   3   5  -1  278.60    7.99
   3   5  -1  257.78    8.02
  -3   5   1  262.04    7.84
  -3   5   1  252.86    7.74
  -3   5   1  248.76    7.80
  -3   5   1  270.06    7.81
   3   5  -1  274.34    7.90
  -1  -5   1   71.54    2.46
   1  -5  -1   72.88    2.37
  -1  -5   1   72.15    2.34
  -1  -5   1   73.69    2.26
  -1  -5   1   72.10    2.36
   1  -5  -1   72.54    2.36
   1   5  -1   78.84    2.34
   1   5  -1   75.27    2.48
  -1   5   1   75.01    2.25
  -1   5   1   72.46    2.36
   1   5  -1   75.96    2.38
  -1   5   1   77.93    2.36
  -1   5   1   73.23    2.36
   1   5  -1   73.01    2.48
  -1   5   1   74.80    2.30
  -1   5   1   77.08    2.36
   1   5  -1   68.64    2.36
   1   5  -1   79.70    2.51
  -1   5   1   76.12    2.41
   1  -5   1  136.73    4.13
  -1  -5  -1  132.69    4.14
  -1  -5  -1  141.39    4.09
   1  -5   1  135.64    4.29
   1  -5   1  138.36    4.22
   1  -5   1  132.04    4.17
   1  -5   1  133.96    4.17
  -1  -5  -1  127.91    4.16
  -1  -5  -1  130.89    4.16
   1  -5   1  129.66    4.06
  -1  -5  -1  137.03    4.21
  -1   5  -1  142.03    4.18
   1   5   1  142.09    4.18
  -1   5  -1  130.52    4.25
   1   5   1  140.57    4.16
   1   5   1  136.60    4.16
   1   5   1  137.40    4.26
  -1   5  -1  144.23    4.34
  -1   5  -1  138.67    4.06
   1   5   1  129.19    4.09
  -1   5  -1  138.57    4.16
  -1   5  -1  131.60    4.15
  -3  -5  -1  476.88   14.52
  -3  -5  -1  503.85   14.55
  -3  -5  -1  466.33   14.55
   3  -5   1  512.04   14.63
   3  -5   1  501.97   14.58
   3  -5   1  494.25   14.67
  -3  -5  -1  467.84   14.53
   3  -5   1  448.81   14.50
  -3  -5  -1  467.37   14.67
  -3   5  -1  481.36   14.70
   3   5   1  488.54   14.72
   3   5   1  502.28   14.54
   3   5   1  462.49   14.54
   3   5   1  512.13   14.55
  -3   5  -1  466.30   14.62
  -3   5  -1  487.18   14.56
  -3   5  -1  507.94   14.53
  -3   5  -1  484.46   14.54
  -3   5  -1  511.19   14.74
   3   5   1  505.14   14.59
   5  -5   1  143.65    4.51
  -5  -5  -1  139.50    4.53
  -5  -5  -1  142.41    4.47
   5  -5   1  151.12    4.40
  -5  -5  -1  146.50    4.54
  -5  -5  -1  151.08    4.57
   5  -5   1  139.21    4.48
  -5  -5  -1  142.90    4.69
   5   5   1  140.04    4.65
  -5   5  -1  142.68    4.72
  -5   5  -1  138.13    4.58
  -5   5  -1  140.31    4.46
  -5   5  -1  159.27    4.58
   5   5   1  151.81    4.76
  -5   5  -1  144.44    4.48
   7  -5   1    4.22    0.29
  -7  -5  -1    3.80    0.39
  -7  -5  -1    4.17    0.54
  -7  -5  -1    4.92    0.45
  -7  -5  -1    3.82    0.31
   7  -5   1    3.79    0.33
  -7  -5  -1    2.84    0.44
  -7   5  -1    4.70    0.33
   7   5   1    3.63    0.57
  -7   5  -1    3.35    0.44
  -7   5  -1    4.23    0.55
   9  -5   1  120.85    3.57
  -9  -5  -1  111.12    3.63
  -9  -5  -1  113.65    3.87
  -9  -5  -1  111.58    4.04
  -9  -5  -1  116.03    3.80
  -9   5  -1  113.78    3.69
  -9   5  -1  112.91    3.89
 -11  -5  -1  217.58    6.98
  11  -5   1  228.85    6.69
 -11  -5  -1  213.03    6.78
 -11  -5  -1  224.41    7.34
 -11  -5  -1  217.82    7.11
 -11   5  -1  218.52    6.85
 -11   5  -1  213.89    7.13
 -13  -5  -1  148.59    5.41
 -13  -5  -1  147.38    5.00
 -13  -5  -1  149.01    4.77
 -13  -5  -1  150.12    5.21
 -13   5  -1  146.06    4.87
 -13   5  -1  152.34    5.23
 -15  -5  -1    2.51    0.91
 -15  -5  -1    0.53    0.28
  15  -5   1    1.03    0.29
 -15  -5  -1    1.91    0.71
 -15  -5  -1    1.32    0.46
 -15   5  -1    0.74    0.37
 -15   5  -1    0.61    0.49
  15   5   1    0.91    0.38
 -17  -5  -1  196.54    6.22
  17  -5   1  193.44    6.01
 -17  -5  -1  187.05    6.54
 -17  -5  -1  196.37    6.95
 -17  -5  -1  193.74    7.16
 -17   5  -1  194.18    6.43
  17   5   1  197.11    6.41
 -17   5  -1  190.74    6.91
 -19  -5  -1   95.69    4.72
 -19  -5  -1   94.95    3.84
 -19  -5  -1  103.10    4.57
 -19  -5  -1  100.58    3.49
 -19   5  -1   97.66    4.29
 -19   5  -1   96.43    4.31
  19   5   1   98.81    3.66
 -21  -5  -1   24.09    1.91
 -21  -5  -1   21.69    3.32
 -21  -5  -1   29.07    1.55
 -21  -5  -1   22.57    3.09
  21   5   1   22.88    1.62
 -21   5  -1   23.39    2.42
 -21   5  -1   24.38    1.90
 -22  -6   1    2.33    2.01
 -22  -6   1   -0.61    1.92
 -22  -6   1   -0.16    0.93
 -22   6   1   -0.39    1.31
  22   6  -1    2.36    0.86
 -20  -6   1   80.81    4.27
 -20  -6   1   77.55    4.39
 -20  -6   1   75.69    3.31
  20   6  -1   73.82    3.05
 -20   6   1   69.14    3.64
 -20   6   1   76.86    3.19
 -18  -6   1   60.57    3.41
 -18  -6   1   57.49    2.19
 -18  -6   1   56.43    2.60
 -18  -6   1   56.99    3.25
 -18   6   1   53.71    2.84
  18   6  -1   57.01    2.43
 -18   6   1   60.62    2.48
 -16  -6   1   37.33    1.49
 -16  -6   1   35.12    1.81
 -16  -6   1   39.73    2.36
 -16  -6   1   35.40    2.40
  16   6  -1   38.34    1.73
 -16   6   1   35.94    1.67
  16   6  -1   35.88    2.35
 -16   6   1   33.86    1.98
 -14  -6   1   41.91    2.26
 -14  -6   1   42.86    2.38
 -14  -6   1   43.37    1.63
 -14  -6   1   42.84    1.93
 -14   6   1   43.81    1.76
  14   6  -1   43.27    2.27
 -14   6   1   43.43    2.06
  14   6  -1   43.80    1.85
 -12  -6   1   19.92    1.14
 -12  -6   1   22.27    0.94
 -12  -6   1   22.11    1.43
 -12  -6   1   22.33    1.53
  12   6  -1   20.42    1.10
  12   6  -1   22.10    1.48
 -12   6   1   21.31    1.23
 -12   6   1   23.28    1.04
 -10  -6   1  430.62   13.33
 -10  -6   1  420.80   13.17
 -10  -6   1  418.98   12.74
 -10  -6   1  431.10   13.00
 -10   6   1  417.72   12.77
  10   6  -1  410.96   12.94
 -10   6   1  426.19   13.00
  10   6  -1  430.08   13.25
  -8  -6   1  212.97    6.46
  -8  -6   1  206.99    6.59
  -8  -6   1  198.68    6.24
   8  -6  -1  206.61    6.35
  -8  -6   1  201.24    6.69
  -8   6   1  203.37    6.24
   8   6  -1  198.66    6.66
   8   6  -1  201.59    6.42
  -8   6   1  208.07    6.41
   6  -6  -1    1.23    0.20
  -6  -6   1    1.08    0.23
  -6  -6   1    1.55    0.34
  -6  -6   1    1.67    0.33
  -6  -6   1    1.42    0.30
  -6   6   1    1.59    0.26
  -6   6   1    1.29    0.18
   6   6  -1    1.43    0.33
   6   6  -1    1.31    0.23
   6   6  -1    2.13    0.36
   6   6  -1    1.15    0.35
  -4  -6   1   79.11    2.60
  -4  -6   1   86.13    2.65
  -4  -6   1   78.77    2.79
  -4  -6   1   81.82    2.71
  -4  -6   1   81.68    2.86
  -4   6   1   89.63    2.64
   4   6  -1   80.04    2.71
   4   6  -1   81.42    2.88
   4   6  -1   79.08    2.86
  -4   6   1   83.18    2.56
   4   6  -1   86.73    2.62
  -4   6   1   79.10    2.63
   4   6  -1   85.83    2.82
  -2  -6   1  587.72   18.13
   2  -6  -1  587.05   18.13
  -2  -6   1  592.67   18.25
  -2  -6   1  599.95   18.35
   2  -6  -1  571.43   18.13
  -2  -6   1  609.89   18.02
   2   6  -1  633.17   18.09
  -2   6   1  614.60   18.22
   2   6  -1  591.15   18.29
  -2   6   1  606.68   18.04
   2   6  -1  582.18   18.15
   2   6  -1  629.58   18.17
   2   6  -1  633.81   18.32
  -2   6   1  592.94   18.12
  -2   6   1  612.94   18.13
  -2   6   1  597.52   18.12
   2   6  -1  657.77   18.30
  -2   6   1  645.56   18.23
   0  -6  -1  135.56    4.38
   0  -6  -1  137.65    4.38
   0  -6   1  141.81    4.50
   0  -6   1  140.66    4.39
   0  -6   1  139.14    4.38
   0   6  -1  137.59    4.50
   0   6  -1  139.54    4.38
   0   6  -1  144.38    4.40
   0   6   1  140.61    4.34
   0   6   1  143.59    4.38
   0   6   1  147.67    4.36
   0   6   1  152.29    4.45
   0   6  -1  149.89    4.56
   0   6   1  142.87    4.45
   0   6   1  135.08    4.43
   0   6  -1  144.77    4.37
   2  -6   1    0.73    0.15
  -2  -6  -1    1.65    0.20
  -2  -6  -1    0.99    0.16
   2  -6   1    0.84    0.20
   2  -6   1    0.99    0.14
  -2  -6  -1    1.00    0.17
  -2  -6  -1    0.99    0.17
  -2  -6  -1    1.25    0.17
   2  -6   1    1.07    0.16
   2   6   1    1.30    0.20
  -2   6  -1    1.09    0.29
   2   6   1    1.07    0.18
  -2   6  -1    1.30    0.23
  -2   6  -1    1.80    0.25
  -2   6  -1    0.94    0.16
   2   6   1    1.12    0.19
   2   6   1    1.38    0.25
  -2   6  -1    1.18    0.17
  -4  -6  -1    9.08    0.46
   4  -6   1    8.26    0.46
   4  -6   1    9.28    0.39
  -4  -6  -1    8.26    0.47
  -4  -6  -1    8.62    0.62
  -4  -6  -1    8.71    0.50
  -4  -6  -1    8.60    0.48
   4   6   1    8.66    0.49
  -4   6  -1    8.67    0.44
  -4   6  -1    8.75    0.55
   4   6   1    9.50    0.49
   4   6   1    8.91    0.64
  -4   6  -1    9.12    0.47
  -4   6  -1    8.45    0.72
  -6  -6  -1  215.84    6.92
   6  -6   1  212.03    6.65
  -6  -6  -1  214.62    6.70
  -6  -6  -1  221.27    6.74
  -6  -6  -1  219.38    6.97
   6  -6   1  222.71    6.51
  -6  -6  -1  211.14    6.63
  -6   6  -1  210.31    6.78
  -6   6  -1  233.19    6.75
  -6   6  -1  200.93    6.61
   6   6   1  221.68    6.98
   8  -6   1  285.75    8.67
  -8  -6  -1  275.45    8.62
  -8  -6  -1  279.64    8.76
   8  -6   1  294.48    8.50
  -8  -6  -1  280.88    9.00
  -8  -6  -1  288.24    8.79
   8   6   1  290.93    9.09
  -8   6  -1  273.62    8.64
  -8   6  -1  280.92    8.85
  10  -6   1    4.92    0.37
 -10  -6  -1    4.42    0.39
 -10  -6  -1    4.42    0.63
 -10  -6  -1    4.30    0.70
 -10  -6  -1    4.22    0.51
 -10   6  -1    5.58    0.62
 -10   6  -1    4.68    0.46
  12  -6   1   14.12    0.67
 -12  -6  -1   14.24    0.92
 -12  -6  -1   13.06    1.09
 -12  -6  -1   12.06    0.70
 -12  -6  -1   14.59    1.34
 -12   6  -1   13.04    0.78
 -12   6  -1   13.02    1.03
 -14  -6  -1  165.41    5.67
 -14  -6  -1  173.35    5.42
 -14  -6  -1  168.66    5.89
 -14  -6  -1  172.68    6.16
  14  -6   1  164.47    5.25
 -14   6  -1  168.04    5.91
  14   6   1  171.33    5.61
 -14   6  -1  170.92    5.54
 -16  -6  -1  143.93    5.07
 -16  -6  -1  145.67    5.63
 -16  -6  -1  141.00    5.35
 -16  -6  -1  144.18    4.73
 -16   6  -1  142.90    5.37
 -16   6  -1  145.77    4.92
  16   6   1  146.78    4.95
 -18  -6  -1    0.77    0.57
 -18  -6  -1    1.35    1.18
 -18  -6  -1    0.86    1.05
 -18   6  -1    0.15    0.52
 -18   6  -1    1.61    0.83
  18   6   1   -0.23    0.46
 -20  -6  -1   31.15    1.61
 -20  -6  -1   28.23    1.95
 -20  -6  -1   30.58    3.31
 -20  -6  -1   29.51    3.12
  20   6   1   28.68    1.73
 -20   6  -1   28.87    2.40
 -20   6  -1   30.38    1.94
 -22  -6  -1   33.10    4.54
 -22  -6  -1   30.66    2.22
  22   6   1   27.19    1.92
 -22   6  -1   27.83    2.27
 -22   6  -1   29.94    2.82
 -21  -7   1   44.10    2.52
 -21  -7   1   50.92    3.82
 -21  -7   1   47.55    3.98
  21   7  -1   40.64    2.24
 -21   7   1   43.59    2.92
 -19  -7   1   21.83    1.25
 -19  -7   1   20.68    1.63
 -19  -7   1   14.55    2.06
 -19  -7   1   19.74    2.75
 -19   7   1   20.03    2.17
  19   7  -1   23.24    1.50
 -19   7   1   24.92    1.62
 -17  -7   1    6.83    1.33
 -17  -7   1    6.88    0.75
 -17  -7   1    7.73    1.38
 -17  -7   1    6.96    1.03
  17   7  -1    9.29    1.57
 -17   7   1    8.60    0.97
 -17   7   1    8.85    1.24
  17   7  -1    6.86    0.94
 -15  -7   1   98.21    3.77
 -15  -7   1  102.24    4.13
 -15  -7   1  104.40    3.43
 -15  -7   1  101.65    4.33
  15   7  -1  101.48    3.69
 -15   7   1  102.17    3.95
  15   7  -1  107.92    4.23
 -15   7   1  102.64    3.57
 -13  -7   1   86.03    3.47
 -13  -7   1   89.95    3.69
 -13  -7   1   87.71    2.92
 -13  -7   1   87.73    3.23
 -13   7   1   84.56    3.00
 -13   7   1   89.50    3.32
  13   7  -1   82.75    3.14
  13   7  -1   89.76    3.59
 -11  -7   1   28.63    1.70
 -11  -7   1   28.87    1.11
 -11  -7   1   26.89    1.56
 -11  -7   1   27.45    1.34
  11   7  -1   25.82    1.60
 -11   7   1   27.40    1.16
 -11   7   1   29.28    1.37
  11   7  -1   25.62    1.27
  -9  -7   1    4.37    0.72
  -9  -7   1    2.65    0.40
   9  -7  -1    3.25    0.39
  -9  -7   1    3.66    0.58
  -9  -7   1    3.14    0.34
   9   7  -1    3.68    0.65
   9   7  -1    2.86    0.43
  -9   7   1    3.21    0.46
  -9   7   1    3.91    0.35
  -7  -7   1   91.25    3.23
  -7  -7   1   92.15    3.12
  -7  -7   1   92.99    3.11
  -7  -7   1   89.17    2.95
   7  -7  -1   93.19    3.05
  -7  -7   1   93.60    3.36
   7   7  -1   92.46    3.43
   7   7  -1   89.93    3.11
  -7   7   1   99.93    3.12
  -7   7   1   90.65    3.06
  -7   7   1   93.42    2.93
   7   7  -1   88.72    3.34
  -5  -7   1  316.40    9.73
  -5  -7   1  317.29    9.85
   5  -7  -1  309.86    9.80
  -5  -7   1  344.12    9.80
  -5  -7   1  321.10    9.96
  -5  -7   1  318.54   10.05
  -5   7   1  307.06    9.78
  -5   7   1  321.99    9.68
   5   7  -1  299.10    9.86
   5   7  -1  332.36   10.11
   5   7  -1  326.92    9.73
   5   7  -1  341.73    9.97
   5   7  -1  313.02   10.11
  -5   7   1  351.87    9.78
  -3  -7   1   95.02    3.19
   3  -7  -1   94.64    3.07
  -3  -7   1   96.74    3.08
  -3  -7   1   99.39    2.96
   3  -7  -1   89.87    3.07
  -3  -7   1   94.85    3.23
  -3  -7   1   92.78    3.08
  -3  -7   1   92.99    3.01
   3   7  -1   95.61    3.36
   3   7  -1   97.58    3.21
  -3   7   1   99.36    3.21
  -3   7   1   98.81    2.93
   3   7  -1   93.75    3.09
  -3   7   1   87.05    3.15
  -3   7   1   95.91    2.96
   3   7  -1   94.78    3.01
   3   7  -1  100.64    3.30
  -1  -7   1   15.72    0.69
  -1  -7   1   14.95    0.78
   1  -7  -1   15.24    0.69
   1  -7  -1   15.34    0.69
  -1  -7   1   15.11    0.66
   1   7  -1   15.32    0.67
  -1   7   1   15.95    0.64
   1   7  -1   15.32    0.68
   1   7  -1   15.91    0.84
  -1   7   1   15.21    0.62
  -1   7   1   16.72    0.78
   1   7  -1   15.39    0.82
  -1   7   1   14.84    0.71
   1   7  -1   15.74    0.82
  -1   7   1   16.08    0.73
  -1  -7  -1  274.04    8.61
   1  -7   1  287.09    8.78
   1  -7   1  275.19    8.63
   1  -7   1  276.11    8.63
  -1  -7  -1  278.60    8.63
  -1   7  -1  286.44    8.61
  -1   7  -1  287.31    8.63
   1   7   1  295.88    8.77
   1   7   1  269.50    8.74
   1   7   1  294.49    8.62
   1   7   1  302.73    8.66
  -1   7  -1  301.07    8.84
   1   7   1  266.23    8.59
  -1   7  -1  276.09    8.77
  -1   7  -1  297.91    8.76
  -3  -7  -1  281.59    9.05
   3  -7   1  304.47    8.97
  -3  -7  -1  291.37    9.07
  -3  -7  -1  319.06    9.01
   3  -7   1  280.50    9.10
  -3  -7  -1  308.44    9.23
  -3  -7  -1  304.74    9.06
  -3   7  -1  289.86    9.05
   3   7   1  323.11    9.10
  -3   7  -1  292.71    9.33
   3   7   1  307.71    9.31
  -3   7  -1  282.98    9.18
  -3   7  -1  310.09    8.97
   5  -7   1    5.04    0.29
  -5  -7  -1    4.09    0.40
  -5  -7  -1    4.39    0.56
  -5  -7  -1    4.70    0.40
  -5  -7  -1    4.49    0.36
   5  -7   1    4.11    0.35
  -5  -7  -1    4.44    0.47
  -5   7  -1    4.03    0.43
  -5   7  -1    4.92    0.34
   5   7   1    4.74    0.63
  -7  -7  -1   -0.04    0.35
  -7  -7  -1    0.78    0.38
   7  -7   1    0.37    0.16
  -7  -7  -1    0.17    0.18
   7  -7   1    0.63    0.15
  -7  -7  -1    0.13    0.13
  -7  -7  -1    0.28    0.25
   7   7   1    0.32    0.48
  -7   7  -1    0.19    0.15
  -7   7  -1    0.31    0.33
  -7   7  -1    0.38    0.25
  -9  -7  -1   81.56    3.12
  -9  -7  -1   81.95    2.69
   9  -7   1   82.11    2.75
  -9  -7  -1   80.41    2.83
  -9  -7  -1   80.18    2.87
  -9   7  -1   78.74    2.92
  -9   7  -1   77.56    2.72
 -11  -7  -1  159.78    5.29
 -11  -7  -1  160.45    5.37
 -11  -7  -1  159.45    5.67
 -11  -7  -1  160.27    5.10
 -11   7  -1  160.48    5.42
  11   7   1  157.55    5.26
 -11   7  -1  164.90    5.16
 -13  -7  -1  121.28    4.56
 -13  -7  -1  114.85    3.84
 -13  -7  -1  120.28    4.25
 -13  -7  -1  115.04    4.09
  13   7   1  111.70    4.02
 -13   7  -1  116.27    4.27
 -13   7  -1  118.39    3.95
 -15  -7  -1   18.41    0.96
 -15  -7  -1   16.08    1.59
 -15  -7  -1   15.38    1.13
 -15  -7  -1   15.74    1.84
 -15   7  -1   17.87    1.08
 -15   7  -1   14.99    1.36
  15   7   1   14.91    1.06
 -17  -7  -1   89.99    3.68
 -17  -7  -1  102.54    4.55
 -17  -7  -1   99.63    3.38
 -17  -7  -1   99.53    4.14
  17   7   1   94.62    3.58
 -17   7  -1   98.49    3.58
 -17   7  -1   91.81    3.98
  17   7   1   92.51    4.21
 -19  -7  -1   62.75    3.01
 -19  -7  -1   77.33    2.76
 -19  -7  -1   66.91    3.80
 -19  -7  -1   72.41    5.27
  19   7   1   71.49    2.90
 -19   7  -1   69.80    2.96
 -19   7  -1   64.69    3.39
 -21  -7  -1    7.79    1.18
  21   7   1    8.30    1.07
 -21   7  -1   12.21    1.72
 -21   7  -1    7.51    1.45
 -20  -8   1    2.85    0.91
 -20  -8   1    4.55    2.33
 -20  -8   1    3.29    1.92
  20   8  -1    3.74    0.84
 -20   8   1    3.53    1.14
 -18  -8   1   36.45    1.61
 -18  -8   1   37.58    3.17
 -18  -8   1   33.43    1.98
 -18  -8   1   35.20    2.87
  18   8  -1   35.19    1.84
 -18   8   1   30.48    2.17
 -18   8   1   37.60    1.86
 -16  -8   1   86.78    4.02
 -16  -8   1  102.18    4.16
 -16  -8   1   96.71    4.37
 -16  -8   1   99.07    3.28
 -16   8   1   88.53    4.48
  16   8  -1   98.76    4.23
 -16   8   1   97.70    3.58
 -14  -8   1    4.27    0.65
 -14  -8   1    6.30    1.00
 -14  -8   1    3.92    0.53
 -14  -8   1    5.02    1.10
 -14   8   1    4.13    0.70
  14   8  -1    4.99    1.01
 -14   8   1    4.75    0.58
  14   8  -1    5.14    0.67
 -12  -8   1   67.79    2.79
 -12  -8   1   65.35    2.95
 -12  -8   1   65.41    2.27
 -12  -8   1   64.33    2.54
 -12   8   1   63.93    2.32
 -12   8   1   63.70    2.57
  12   8  -1   63.11    2.85
  12   8  -1   67.82    2.54
 -10  -8   1   55.19    2.32
 -10  -8   1   53.63    2.51
  10  -8  -1   53.88    2.03
 -10  -8   1   55.76    1.92
 -10  -8   1   56.38    2.15
  10   8  -1   53.53    2.12
 -10   8   1   52.82    2.11
 -10   8   1   52.70    1.91
  10   8  -1   56.29    2.45
  -8  -8   1   52.42    1.89
  -8  -8   1   53.53    2.06
  -8  -8   1   54.78    2.36
   8   8  -1   56.04    2.08
  -8   8   1   57.89    2.11
   8   8  -1   56.33    2.36
  -8   8   1   54.98    2.03
  -8   8   1   53.76    1.86
  -6  -8   1    6.43    0.64
  -6  -8   1    6.52    0.52
  -6  -8   1    7.58    0.45
  -6  -8   1    6.17    0.60
  -6  -8   1    6.41    0.74
   6  -8  -1    5.57    0.46
  -6   8   1    7.37    0.54
   6   8  -1    5.72    0.51
   6   8  -1    6.25    0.88
   6   8  -1    6.91    0.72
   6   8  -1    7.21    0.79
  -6   8   1    6.23    0.38
  -6   8   1    6.61    0.49
  -4  -8   1   78.01    2.83
   4  -8  -1   79.54    2.64
  -4  -8   1   78.31    2.76
  -4  -8   1   76.50    2.64
   4  -8  -1   76.58    2.65
  -4  -8   1   80.95    2.53
  -4  -8   1   78.43    2.64
  -4   8   1   75.90    2.61
   4   8  -1   79.56    2.79
   4   8  -1   81.03    2.91
   4   8  -1   77.74    2.67
  -4   8   1   78.84    2.51
  -4   8   1   85.53    2.50
   4   8  -1   77.27    2.86
   2  -8  -1   13.37    0.66
  -2  -8   1   13.00    0.65
   2  -8  -1   13.00    0.67
  -2  -8   1   13.14    0.77
  -2   8   1   14.83    0.83
  -2   8   1   14.02    0.71
   2   8  -1   12.65    0.80
  -2   8   1   12.99    0.57
  -2   8   1   13.96    0.68
  -2   8   1   13.90    0.61
   2   8  -1   14.66    0.86
   2   8  -1   14.97    0.69
   2   8  -1   12.36    0.83
   0  -8  -1  133.72    4.33
   0  -8  -1  140.01    4.34
   0  -8   1  129.63    4.33
   0  -8   1  131.20    4.44
   0  -8   1  138.56    4.33
   0   8   1  141.63    4.28
   0   8  -1  144.90    4.52
   0   8   1  140.42    4.44
   0   8  -1  141.36    4.54
   0   8   1  146.79    4.41
   0   8  -1  132.67    4.31
   0   8  -1  133.47    4.48
   0   8   1  133.60    4.41
   0   8   1  137.78    4.29
   2  -8   1   36.17    1.35
  -2  -8  -1   36.40    1.32
   2  -8   1   34.80    1.37
  -2  -8  -1   36.22    1.34
  -2  -8  -1   35.33    1.34
   2   8   1   39.15    1.39
  -2   8  -1   36.17    1.46
   2   8   1   34.83    1.47
   2   8   1   36.73    1.33
  -2   8  -1   37.22    1.32
  -4  -8  -1  230.45    7.32
  -4  -8  -1  248.70    7.51
  -4  -8  -1  255.04    7.25
  -4  -8  -1  236.61    7.27
   4  -8   1  229.22    7.32
  -4  -8  -1  231.51    7.29
  -4   8  -1  225.04    7.26
  -4   8  -1  230.29    7.43
   4   8   1  258.47    7.33
   4   8   1  228.30    7.52
   4   8   1  241.11    7.59
  -4   8  -1  241.61    7.19
  -6  -8  -1  116.92    3.73
   6  -8   1  114.08    3.71
  -6  -8  -1  116.62    3.98
  -6  -8  -1  114.99    3.70
  -6  -8  -1  115.18    3.74
   6  -8   1  117.33    3.48
  -6  -8  -1  113.52    3.67
  -6   8  -1  111.61    3.83
   6   8   1  109.12    3.76
  -6   8  -1  111.77    3.66
   6   8   1  116.69    4.08
  -6   8  -1  117.82    3.70
  -8  -8  -1   25.13    1.04
  -8  -8  -1   24.23    1.17
  -8  -8  -1   26.00    1.43
   8  -8   1   26.02    1.10
  -8  -8  -1   24.86    1.15
  -8   8  -1   25.52    1.06
   8   8   1   25.61    1.17
  -8   8  -1   24.13    1.22
  10  -8   1    0.47    0.22
 -10  -8  -1    0.45    0.57
 -10  -8  -1    0.00    0.21
 -10  -8  -1   -0.33    0.39
 -10  -8  -1    0.35    0.29
 -10   8  -1    0.58    0.34
 -10   8  -1    0.04    0.21
  10   8   1    0.44    0.24
 -12  -8  -1   87.86    3.31
 -12  -8  -1   86.98    2.99
 -12  -8  -1   87.51    3.20
 -12  -8  -1   93.19    3.71
 -12   8  -1   90.00    3.07
 -12   8  -1   84.21    3.34
  12   8   1   85.25    3.17
 -14  -8  -1   26.57    2.10
 -14  -8  -1   23.43    1.65
 -14  -8  -1   22.32    1.34
 -14  -8  -1   22.53    1.12
 -14   8  -1   22.18    1.53
  14   8   1   25.77    1.85
 -14   8  -1   23.40    1.25
  14   8   1   22.74    1.29
 -16  -8  -1    1.22    1.20
 -16  -8  -1    0.77    0.95
 -16  -8  -1    0.48    0.51
 -16  -8  -1    0.78    0.42
 -16   8  -1    0.11    0.67
  16   8   1    1.36    1.00
  16   8   1    0.38    0.46
 -16   8  -1    0.49    0.48
 -18  -8  -1   16.12    1.47
 -18  -8  -1   16.93    1.38
 -18  -8  -1   20.80    2.58
 -18  -8  -1   24.03    3.00
 -18   8  -1   16.40    1.84
  18   8   1   16.12    1.33
 -18   8  -1   17.10    1.44
 -20  -8  -1    3.38    0.72
 -20  -8  -1    2.70    0.86
 -20   8  -1    1.72    0.87
  20   8   1    2.93    0.78
 -20   8  -1    2.13    1.13
 -19  -9   1   22.94    1.81
 -19  -9   1   22.14    3.91
  19   9  -1   22.77    1.65
 -19   9   1   24.01    2.05
 -17  -9   1   -0.81    1.19
 -17  -9   1    1.58    1.42
 -17  -9   1   -0.42    0.56
 -17  -9   1    0.60    0.48
 -17   9   1    0.64    0.58
  17   9  -1   -0.23    0.49
  17   9  -1   -1.36    1.35
 -17   9   1   -0.69    0.71
 -15  -9   1   99.83    3.29
 -15  -9   1   96.82    3.97
 -15  -9   1   89.48    4.31
 -15  -9   1   99.16    4.34
  15   9  -1   97.33    4.15
 -15   9   1   97.00    3.40
 -15   9   1   89.10    3.98
 -13  -9   1   20.46    1.29
 -13  -9   1   21.10    1.95
 -13  -9   1   25.03    1.67
 -13  -9   1   21.88    1.03
 -13   9   1   22.08    1.37
  13   9  -1   25.39    1.83
 -13   9   1   21.89    1.12
  13   9  -1   20.20    1.25
 -11  -9   1    4.10    0.96
 -11  -9   1    4.15    0.74
 -11  -9   1    4.53    0.47
  11  -9  -1    4.22    0.55
 -11  -9   1    4.43    0.66
  11   9  -1    4.67    0.63
  11   9  -1    5.59    0.91
 -11   9   1    4.64    0.77
 -11   9   1    4.80    0.68
   9  -9  -1    0.84    0.24
  -9  -9   1    1.56    0.63
  -9  -9   1    0.74    0.31
  -9  -9   1    0.91    0.23
  -9  -9   1    1.11    0.48
  -9   9   1    1.40    0.37
   9   9  -1    0.86    0.51
   9   9  -1    1.03    0.33
  -9   9   1    1.14    0.26
  -7  -9   1   12.14    1.09
  -7  -9   1   11.22    1.00
  -7  -9   1   11.25    0.61
  -7  -9   1   10.50    0.73
   7  -9  -1   11.03    0.67
  -7  -9   1   10.15    0.83
  -7   9   1   12.95    0.78
  -7   9   1   11.69    0.71
   7   9  -1   10.93    0.73
  -7   9   1   10.64    0.56
   7   9  -1   12.10    0.97
  -5  -9   1   12.00    0.62
  -5  -9   1   12.35    0.67
  -5  -9   1   11.59    0.69
  -5  -9   1   11.42    0.82
  -5  -9   1   12.25    0.93
   5  -9  -1   11.27    0.66
  -5   9   1   13.25    0.59
  -5   9   1   11.50    0.67
   5   9  -1   12.27    1.03
   5   9  -1   11.68    0.89
  -5   9   1   11.74    0.57
   5   9  -1   11.35    0.93
   5   9  -1   12.00    0.71
  -3  -9   1   98.36    3.22
   3  -9  -1   97.63    3.29
   3  -9  -1   99.64    3.27
  -3  -9   1   97.55    3.38
  -3  -9   1   96.78    3.26
   3   9  -1   98.04    3.43
   3   9  -1  100.30    3.51
  -3   9   1   99.05    3.31
   3   9  -1  108.54    3.58
   3   9  -1   96.91    3.29
  -3   9   1  101.74    3.16
  -3   9   1  100.81    3.29
  -1  -9   1   20.41    0.87
   1  -9  -1   20.93    0.90
  -1  -9   1   19.42    0.88
   1  -9  -1   20.32    0.89
  -1  -9   1   20.48    1.00
   1   9  -1   18.34    1.11
  -1   9   1   19.24    0.94
  -1   9   1   20.09    0.81
   1   9  -1   19.09    1.03
  -1   9   1   19.08    0.95
  -1   9   1   18.79    1.02
   1   9  -1   20.40    1.08
  -1  -9  -1  108.79    3.58
   1  -9   1  107.29    3.58
  -1  -9  -1  110.55    3.59
   1  -9   1  110.18    3.60
   1   9   1  108.27    3.71
  -1   9  -1  110.99    3.57
   1   9   1  109.51    3.56
  -1   9  -1  112.16    3.75
   1   9   1  115.77    3.65
   1   9   1  116.91    3.78
  -3  -9  -1  112.59    3.62
   3  -9   1  115.39    3.69
  -3  -9  -1  114.08    3.69
  -3  -9  -1  111.04    3.67
   3   9   1  120.39    3.70
  -3   9  -1  112.32    3.64
  -3   9  -1  110.59    3.81
   3   9   1  107.18    3.85
   3   9   1  120.71    3.96
  -5  -9  -1    9.88    0.61
  -5  -9  -1    9.94    0.86
  -5  -9  -1   10.26    0.59
   5  -9   1   10.72    0.61
  -5  -9  -1   10.70    0.63
  -5  -9  -1   10.13    0.63
  -5  -9  -1   10.45    0.67
  -5   9  -1    9.89    0.57
   5   9   1    9.69    0.79
  -5   9  -1   11.90    0.56
   5   9   1    9.50    0.93
  -5   9  -1   10.56    0.71
   5   9   1   10.27    0.63
  -7  -9  -1    4.89    0.50
   7  -9   1    4.45    0.44
  -7  -9  -1    4.06    0.54
  -7  -9  -1    4.88    0.43
  -7  -9  -1    4.81    0.59
  -7  -9  -1    4.55    0.67
  -7   9  -1    4.74    0.56
   7   9   1    4.49    0.69
   7   9   1    4.33    0.48
  -7   9  -1    4.26    0.60
   7   9   1    5.49    0.88
  -7   9  -1    4.44    0.45
  -9  -9  -1    7.27    1.06
  -9  -9  -1    6.62    0.64
  -9  -9  -1    6.08    0.51
   9  -9   1    6.27    0.55
  -9  -9  -1    6.24    0.75
   9   9   1    5.33    0.58
  -9   9  -1    6.66    0.55
  -9   9  -1    7.21    0.72
   9   9   1    7.00    0.90
 -11  -9  -1   57.25    2.38
  11  -9   1   57.05    2.19
 -11  -9  -1   57.37    2.29
 -11  -9  -1   59.04    2.12
  11   9   1   58.51    2.65
 -11   9  -1   58.77    2.16
  11   9   1   59.63    2.30
 -11   9  -1   56.50    2.41
 -13  -9  -1    2.59    0.43
 -13  -9  -1    4.39    1.06
 -13  -9  -1    3.27    0.58
 -13  -9  -1    4.13    0.79
  13   9   1    4.71    0.94
 -13   9  -1    3.52    0.70
  13   9   1    4.41    0.63
 -13   9  -1    3.46    0.52
 -15  -9  -1   -0.96    0.83
 -15  -9  -1    0.19    0.36
 -15  -9  -1    2.30    1.20
 -15   9  -1    0.64    0.45
  15   9   1   -0.30    0.82
 -17  -9  -1    0.13    0.48
 -17  -9  -1    0.83    1.71
 -17  -9  -1    1.09    0.65
  17   9   1    1.22    1.27
 -17   9  -1    1.93    0.69
 -17   9  -1    2.10    0.81
  17   9   1    0.66    0.54
 -19  -9  -1   31.91    1.73
 -19  -9  -1   34.78    2.10
  19   9   1   28.59    1.83
 -19   9  -1   32.18    1.94
 -19   9  -1   32.33    2.43
 -20 -10   1   -0.51    0.93
 -20  10   1   -0.86    1.14
  20  10  -1    1.19    0.84
 -18 -10   1   -0.88    0.74
 -18  10   1    0.90    0.90
  18  10  -1   -0.92    0.61
 -16 -10   1    3.20    1.65
 -16 -10   1    0.93    0.47
 -16 -10   1    0.74    1.15
 -16 -10   1    1.08    0.63
  16  10  -1    0.90    0.54
 -16  10   1    1.58    0.77
  16  10  -1    1.55    1.31
 -14 -10   1    4.35    1.41
 -14 -10   1    5.37    1.10
 -14 -10   1    4.53    0.76
 -14 -10   1    6.33    0.81
  14  10  -1    4.64    1.02
 -14  10   1    5.36    0.66
 -14  10   1    3.41    0.77
  14  10  -1    6.31    1.17
 -12 -10   1    0.16    0.89
 -12 -10   1   -0.54    0.63
 -12 -10   1    0.94    0.40
 -12 -10   1    0.47    0.29
 -12  10   1    0.42    0.34
  12  10  -1    0.02    0.39
  12  10  -1   -0.92    0.65
 -12  10   1    0.53    0.42
  10 -10  -1    7.19    0.67
 -10 -10   1    8.45    0.60
 -10 -10   1    8.19    1.82
 -10 -10   1    8.14    1.04
 -10 -10   1    7.40    0.76
 -10  10   1    6.73    0.71
 -10  10   1    7.70    0.77
  10  10  -1    8.36    0.76
  10  10  -1    7.07    1.09
  -8 -10   1    1.06    0.34
  -8 -10   1    0.95    0.58
   8 -10  -1    0.72    0.25
  -8 -10   1    0.81    0.23
  -8 -10   1    0.13    0.44
   8  10  -1    0.69    0.30
  -8  10   1    0.52    0.29
   8  10  -1    1.64    0.54
  -8  10   1    0.64    0.23
  -6 -10   1    0.87    0.39
  -6 -10   1    0.52    0.24
  -6 -10   1    0.96    0.29
  -6 -10   1    0.69    0.49
  -6 -10   1    0.28    0.19
   6 -10  -1    0.64    0.22
  -6  10   1    0.10    0.26
  -6  10   1    0.49    0.24
  -6  10   1    0.33    0.20
   6  10  -1   -0.31    0.70
   6  10  -1    1.75    0.48
   6  10  -1    0.56    0.26
  -4 -10   1    8.94    0.59
   4 -10  -1    9.43    0.64
   4 -10  -1    8.72    0.60
  -4 -10   1    8.06    0.76
  -4 -10   1    8.72    0.55
  -4  10   1    8.66    0.67
   4  10  -1    9.67    0.99
   4  10  -1    9.93    0.81
  -4  10   1    9.40    0.51
  -4  10   1    8.49    0.61
   4  10  -1    8.43    0.60
   2 -10  -1    0.23    0.21
   2 -10  -1    0.12    0.16
  -2 -10   1    0.37    0.31
  -2 -10   1    0.44    0.18
  -2 -10   1    0.15    0.17
  -2  10   1   -0.04    0.26
   2  10  -1    0.29    0.20
  -2  10   1    0.11    0.23
   2  10  -1    0.07    0.28
   2  10  -1    0.30    0.41
  -2  10   1    0.29    0.16
   0 -10  -1    6.20    0.49
   0 -10  -1    6.39    0.49
   0 -10   1    6.42    0.49
   0 -10   1    6.67    0.50
   0  10  -1    6.92    0.66
   0  10   1    6.52    0.46
   0  10   1    5.99    0.57
   0  10   1    6.88    0.68
   0  10   1    6.78    0.72
   0  10  -1    6.77    0.73
   0  10  -1    6.72    0.49
   2 -10   1    1.05    0.25
  -2 -10  -1    1.46    0.27
  -2 -10  -1    0.94    0.24
   2 -10   1    1.65    0.31
  -2  10  -1    1.21    0.39
  -2  10  -1    1.05    0.34
   2  10   1    1.80    0.46
   2  10   1    1.21    0.26
   2  10   1    1.39    0.35
   2  10   1    1.77    0.38
   4 -10   1    4.37    0.44
  -4 -10  -1    3.62    0.45
  -4 -10  -1    3.01    0.40
  -4 -10  -1    3.51    0.40
  -4 -10  -1    4.06    0.37
   4  10   1    4.00    0.43
  -4  10  -1    3.66    0.47
   4  10   1    3.08    0.48
   4  10   1    3.71    0.46
   4  10   1    4.47    0.69
  -4  10  -1    3.41    0.51
  -6 -10  -1    3.38    0.42
  -6 -10  -1    4.49    0.49
  -6 -10  -1    4.17    0.54
  -6 -10  -1    3.96    0.67
  -6 -10  -1    4.51    0.53
   6 -10   1    4.64    0.46
  -6 -10  -1    3.94    0.47
  -6  10  -1    4.29    0.47
   6  10   1    4.43    0.48
   6  10   1    3.32    0.54
   6  10   1    3.14    0.72
  -6  10  -1    4.07    0.57
  -6  10  -1    4.25    0.58
  -8 -10  -1    3.80    0.49
  -8 -10  -1    3.52    0.50
  -8 -10  -1    4.27    0.45
   8 -10   1    3.12    0.43
  -8 -10  -1    2.74    0.69
  -8 -10  -1    3.42    0.48
   8  10   1    3.93    0.53
  -8  10  -1    2.96    0.40
  -8  10  -1    3.10    0.53
   8  10   1    3.27    0.61
 -10 -10  -1    0.69    0.50
  10 -10   1    0.40    0.26
 -10 -10  -1    1.07    0.28
 -10 -10  -1    0.82    0.37
 -10 -10  -1   -0.16    0.81
  10  10   1    0.69    0.32
 -10  10  -1    0.70    0.42
 -10  10  -1    0.97    0.33
  10  10   1    1.21    0.60
 -12 -10  -1    5.50    0.58
 -12 -10  -1    6.41    1.21
 -12 -10  -1    4.89    0.79
 -12 -10  -1    4.09    0.62
  12  10   1    5.63    0.97
  12  10   1    5.03    0.72
 -12  10  -1    4.82    0.75
 -12  10  -1    4.22    0.65
 -14 -10  -1    1.73    0.44
 -14 -10  -1    1.50    1.23
 -14 -10  -1    0.91    0.52
 -14 -10  -1    0.94    0.89
 -14  10  -1    2.64    0.54
  14  10   1    1.08    0.86
 -16 -10  -1    0.54    0.60
 -16 -10  -1    0.47    0.48
 -16  10  -1   -0.51    0.72
 -16  10  -1    0.88    0.60
  16  10   1    0.56    0.52
  16  10   1    0.98    1.18
 -18 -10  -1    0.11    0.72
 -18 -10  -1   -0.18    0.61
 -18  10  -1   -0.05    0.96
 -18  10  -1    0.73    0.82
  18  10   1    0.80    0.64
 -20 -10  -1    1.00    1.02
  20  10   1    2.83    0.88
 -20  10  -1    4.04    1.31
 -19 -11   1    3.18    0.97
 -19  11   1    4.98    1.21
  19  11  -1    2.97    0.86
 -17 -11   1    3.67    0.85
  17  11  -1    2.68    0.72
 -17  11   1    2.97    0.96
 -15 -11   1   36.55    1.59
 -15 -11   1   35.97    3.52
 -15 -11   1   37.58    1.93
  15  11  -1   36.10    2.66
 -15  11   1   33.19    2.00
  15  11  -1   33.17    1.85
 -13 -11   1   14.47    1.74
 -13 -11   1   12.58    0.86
 -13 -11   1   11.50    1.12
 -13 -11   1   15.37    1.70
 -13  11   1   12.47    1.20
  13  11  -1   14.61    1.72
 -13  11   1   12.51    0.96
  13  11  -1   12.55    1.33
 -11 -11   1    1.00    0.34
 -11 -11   1    1.61    0.70
  11 -11  -1    1.16    0.35
 -11 -11   1    1.71    0.48
 -11 -11   1    0.02    0.91
  11  11  -1    1.75    0.77
 -11  11   1    1.27    0.40
  11  11  -1    0.74    0.42
 -11  11   1    0.85    0.47
   9 -11  -1   11.02    0.80
  -9 -11   1   10.03    0.77
  -9 -11   1   10.76    1.43
  -9 -11   1   11.47    0.90
  -9 -11   1   11.75    1.12
  -9 -11   1   10.58    0.71
   9  11  -1   11.73    0.87
   9  11  -1   10.76    1.21
  -9  11   1   10.76    0.86
  -7 -11   1   25.91    1.40
  -7 -11   1   27.29    1.66
  -7 -11   1   23.96    1.17
   7 -11  -1   23.36    1.16
  -7 -11   1   24.26    1.09
  -7 -11   1   25.67    1.23
   7  11  -1   25.76    1.25
  -7  11   1   22.87    1.18
   7  11  -1   24.54    1.52
  -7  11   1   23.53    1.03
   5 -11  -1    1.22    0.30
  -5 -11   1    1.23    0.34
  -5 -11   1    1.07    0.51
  -5 -11   1    1.34    0.26
   5  11  -1    1.78    0.76
   5  11  -1    1.57    0.35
  -5  11   1    1.24    0.26
  -5  11   1    1.93    0.36
  -5  11   1    2.51    0.44
   5  11  -1    1.91    0.52
  -3 -11   1    0.29    0.38
   3 -11  -1    0.44    0.23
   3 -11  -1    0.05    0.21
  -3 -11   1    0.49    0.21
  -3 -11   1    0.26    0.21
   3  11  -1    0.11    0.54
   3  11  -1    0.42    0.34
  -3  11   1    0.19    0.26
  -3  11   1    1.14    0.36
   3  11  -1    0.48    0.24
  -3  11   1    0.18    0.21
   1 -11  -1   15.55    0.84
  -1 -11   1   14.81    0.81
   1 -11  -1   16.41    0.85
  -1 -11   1   15.04    0.82
  -1  11   1   16.09    0.93
  -1  11   1   15.84    0.78
   1  11  -1   16.55    0.84
  -1  11   1   16.03    1.00
   1  11  -1   15.50    1.02
   1  11  -1   15.59    1.14
  -1 -11  -1    1.37    0.29
   1 -11   1    0.16    0.20
   1 -11   1    0.75    0.25
  -1 -11  -1    0.52    0.24
   1  11   1    0.54    0.21
   1  11   1   -0.20    0.38
  -1  11  -1    0.62    0.33
  -1  11  -1    0.99    0.46
  -1  11  -1    0.53    0.23
   1  11   1   -0.07    0.27
   1  11   1    0.66    0.45
   3 -11   1  142.82    4.60
  -3 -11  -1  138.75    4.59
  -3 -11  -1  137.37    4.57
  -3  11  -1  140.07    4.76
   3  11   1  139.22    4.82
   3  11   1  143.40    4.59
  -3  11  -1  136.86    4.54
   3  11   1  145.93    4.93
   3  11   1  145.19    4.60
  -3  11  -1  146.70    4.79
  -5 -11  -1    0.49    0.29
   5 -11   1    0.32    0.23
  -5 -11  -1    0.41    0.23
  -5 -11  -1    0.25    0.23
   5  11   1    0.46    0.59
   5  11   1    0.89    0.29
  -5  11  -1    0.49    0.30
  -5  11  -1    0.47    0.24
   5  11   1    0.16    0.35
  -7 -11  -1   20.75    1.06
  -7 -11  -1   22.32    1.09
  -7 -11  -1   21.94    1.08
  -7 -11  -1   21.96    1.03
   7 -11   1   21.68    1.06
  -7 -11  -1   21.81    1.51
   7  11   1   19.82    1.35
  -7  11  -1   20.19    1.00
  -7  11  -1   21.39    1.20
   7  11   1   22.09    1.12
  -9 -11  -1   19.26    0.96
  -9 -11  -1   18.99    1.59
  -9 -11  -1   18.13    1.03
   9 -11   1   18.05    1.01
  -9 -11  -1   18.20    1.07
  -9 -11  -1   18.73    1.11
  -9  11  -1   17.27    1.16
   9  11   1   18.12    1.38
   9  11   1   17.28    1.06
  -9  11  -1   17.45    0.94
 -11 -11  -1    1.21    0.46
 -11 -11  -1   -0.34    0.96
  11 -11   1    1.27    0.38
 -11 -11  -1    1.11    0.34
  11  11   1    0.78    0.68
 -11  11  -1    1.16    0.50
 -11  11  -1    1.00    0.38
  11  11   1    1.06    0.41
 -13 -11  -1   19.42    1.36
 -13 -11  -1   20.90    1.13
  13  11   1   19.70    1.82
 -13  11  -1   21.05    1.24
 -15 -11  -1    0.61    0.59
 -15 -11  -1    0.61    0.47
  15  11   1    0.34    1.09
 -15  11  -1   -0.39    0.56
  15  11   1    0.75    0.49
 -15  11  -1   -0.07    0.68
 -17 -11  -1    8.03    1.05
 -17 -11  -1    9.57    1.35
  17  11   1    7.97    1.22
  17  11   1    9.03    1.83
 -17  11  -1    7.28    1.25
 -19 -11  -1    2.99    1.05
  19  11   1    3.06    0.84
 -19  11  -1    1.70    1.18
 -18 -12   1   28.58    2.11
 -18  12   1   26.04    2.20
  18  12  -1   26.40    1.88
 -16 -12   1   46.17    2.38
  16  12  -1   46.27    3.33
 -16  12   1   43.32    2.48
  16  12  -1   46.82    2.30
 -14 -12   1    7.59    1.15
 -14 -12   1    9.74    0.90
 -14  12   1    9.15    1.23
  14  12  -1    9.82    1.54
  14  12  -1   10.55    1.07
  12 -12  -1   24.67    1.74
 -12 -12   1   32.55    1.42
 -12 -12   1   30.27    1.66
 -12 -12   1   32.34    2.05
  12  12  -1   29.95    2.16
 -12  12   1   28.30    1.90
 -12  12   1   34.20    1.49
 -10 -12   1    2.03    0.43
 -10 -12   1    2.64    0.51
 -10 -12   1    2.55    1.33
 -10 -12   1    2.00    0.75
  10 -12  -1    2.61    0.47
 -10 -12   1    1.79    0.53
 -10  12   1    2.60    0.55
  10  12  -1    2.73    0.53
  10  12  -1    1.98    0.70
 -10  12   1    2.78    0.45
   8 -12  -1   26.26    1.30
  -8 -12   1   25.36    1.30
  -8 -12   1   26.52    1.51
  -8 -12   1   28.50    1.23
   8  12  -1   25.49    1.36
  -8  12   1   26.60    1.35
   8  12  -1   26.55    1.70
  -8  12   1   27.58    1.20
   6 -12  -1    3.78    0.53
  -6 -12   1    3.93    0.63
  -6 -12   1    3.37    0.48
  -6 -12   1    4.35    0.54
  -6  12   1    2.56    0.44
  -6  12   1    3.52    0.57
  -6  12   1    3.74    0.69
   6  12  -1    3.64    0.69
  -4 -12   1    2.49    0.41
  -4 -12   1    2.28    0.51
   4 -12  -1    1.38    0.33
  -4 -12   1    1.85    0.32
  -4  12   1    1.30    0.37
   4  12  -1    1.53    0.49
  -4  12   1    2.22    0.48
   4  12  -1    2.53    0.42
  -2 -12   1   35.68    1.52
   2 -12  -1   37.38    1.58
   2 -12  -1   36.69    1.54
  -2 -12   1   37.75    1.55
  -2  12   1   37.37    1.64
   2  12  -1   37.98    1.56
   2  12  -1   37.85    1.80
  -2  12   1   37.55    1.47
  -2  12   1   38.85    1.71
   2  12  -1   41.57    2.63
   0 -12   1  116.84    4.04
   0 -12  -1  122.66    4.07
   0 -12  -1  121.97    4.05
   0 -12   1  123.68    4.07
   0  12   1  116.50    4.19
   0  12  -1  127.25    4.36
   0  12  -1  124.24    4.04
   0  12  -1  120.13    4.29
   0  12   1  123.22    3.99
   0  12   1  124.41    4.30
  -2 -12  -1    4.23    0.51
   2 -12   1    4.82    0.51
  -2 -12  -1    3.89    0.51
   2  12   1    4.08    0.72
  -2  12  -1    3.88    0.67
  -2  12  -1    4.15    0.48
   2  12   1    4.65    0.66
   2  12   1    3.99    0.48
  -2  12  -1    4.01    0.60
   4 -12   1   81.92    2.86
  -4 -12  -1   82.63    2.84
  -4 -12  -1   77.99    2.84
   4  12   1   80.50    2.85
   4  12   1   78.44    3.10
  -4  12  -1   83.79    2.81
  -4  12  -1   77.87    3.00
  -4  12  -1   81.23    3.05
   6 -12   1   36.37    1.53
  -6 -12  -1   33.80    1.52
  -6 -12  -1   36.13    1.50
   6  12   1   35.82    1.56
  -6  12  -1   35.66    1.69
  -6  12  -1   35.49    1.46
   6  12   1   35.42    1.84
  -8 -12  -1    6.75    0.63
  -8 -12  -1    7.54    0.71
   8 -12   1    5.96    0.65
  -8 -12  -1    6.59    0.73
  -8 -12  -1    6.64    0.77
   8  12   1    6.80    0.71
  -8  12  -1    6.64    0.83
  -8  12  -1    6.24    0.64
   8  12   1    6.10    0.90
 -10 -12  -1    9.90    0.74
 -10 -12  -1    8.92    0.90
  10 -12   1    9.53    0.82
 -10 -12  -1    9.33    0.84
 -10  12  -1    8.40    0.79
  10  12   1    9.04    1.26
  10  12   1    9.23    0.87
 -10  12  -1    8.95    0.99
 -12 -12  -1    6.09    0.73
 -12 -12  -1    7.01    0.98
 -12  12  -1    8.00    0.89
 -12  12  -1    6.00    0.91
  12  12   1    6.44    1.11
 -14 -12  -1   47.75    1.98
 -14 -12  -1   46.13    2.22
  14  12   1   45.24    2.19
 -14  12  -1   43.97    2.38
 -14  12  -1   49.76    2.12
 -16 -12  -1   11.50    1.42
 -16 -12  -1   12.73    1.14
  16  12   1    8.01    1.73
 -16  12  -1   10.80    1.62
  16  12   1   11.54    1.29
 -18 -12  -1    4.49    1.04
 -18  12  -1    4.38    1.25
  18  12   1    2.86    0.88
 -17 -13   1    0.67    0.71
 -17 -13   1    2.95    0.97
  17  13  -1    3.15    0.88
 -17  13   1    2.17    1.05
 -15 -13   1    8.81    1.10
 -15 -13   1    8.15    1.15
  15  13  -1   10.64    1.24
  15  13  -1   12.84    1.92
 -15  13   1    9.04    1.19
 -13 -13   1   43.95    2.15
 -13 -13   1   45.53    1.87
 -13 -13   1   42.64    2.02
  13  13  -1   40.07    2.08
  13  13  -1   39.94    2.91
 -13  13   1   42.69    2.17
  11 -13  -1   40.61    1.89
 -11 -13   1   44.53    2.03
 -11 -13   1   41.39    1.93
 -11 -13   1   46.09    1.81
  11  13  -1   38.89    2.00
  11  13  -1   45.67    2.58
 -11  13   1   40.27    2.26
   9 -13  -1    4.25    0.56
  -9 -13   1    4.73    0.65
  -9 -13   1    6.29    0.91
  -9 -13   1    5.82    0.72
  -9  13   1    5.47    0.81
   9  13  -1    6.14    0.80
  -9  13   1    5.15    0.66
   9  13  -1    7.29    1.12
  -7 -13   1   88.49    3.21
   7 -13  -1   92.39    3.23
  -7 -13   1   87.84    3.29
  -7 -13   1   88.21    3.12
  -7  13   1   90.56    3.28
  -7  13   1   91.27    3.07
   7  13  -1   90.96    3.69
   7  13  -1   89.22    3.29
  -5 -13   1   92.32    3.31
   5 -13  -1   94.17    3.26
  -5 -13   1   90.54    3.25
  -5 -13   1   90.42    3.19
  -5  13   1   88.77    3.29
  -5  13   1   94.88    3.12
   5  13  -1   91.71    3.29
   5  13  -1   92.51    3.65
   3 -13  -1    0.54    0.27
   3 -13  -1    0.31    0.31
  -3 -13   1    0.59    0.30
  -3 -13   1    0.35    0.28
   3  13  -1    0.63    0.30
  -3  13   1    0.94    0.29
  -3  13   1    0.15    0.32
   3  13  -1    0.63    0.45
   1 -13  -1    4.82    0.56
   1 -13  -1    4.48    0.59
  -1 -13   1    4.69    0.56
  -1 -13   1    3.15    0.46
  -1  13   1    4.32    0.54
   1  13  -1    5.48    0.78
  -1  13   1    3.80    0.59
   1  13  -1    5.50    0.59
  -1 -13  -1   44.73    1.81
  -1 -13  -1   42.83    1.78
   1 -13   1   46.53    1.81
  -1  13  -1   42.12    2.00
   1  13   1   44.80    1.75
   1  13   1   42.52    1.96
  -1  13  -1   43.89    1.76
   3 -13   1   64.59    2.34
  -3 -13  -1   61.48    2.31
  -3 -13  -1   59.86    2.30
  -3  13  -1   60.56    2.27
   3  13   1   63.13    2.31
  -3  13  -1   59.23    2.50
   3  13   1   60.46    2.57
  -5 -13  -1   14.58    0.94
   5 -13   1   15.22    0.93
  -5 -13  -1   14.27    0.88
   5  13   1   14.77    0.93
  -5  13  -1   15.41    0.90
  -5  13  -1   13.73    1.05
   5  13   1   15.72    1.21
  -7 -13  -1    0.62    0.32
  -7 -13  -1    0.12    0.32
   7 -13   1    0.03    0.30
  -7  13  -1   -0.80    0.38
   7  13   1   -0.51    0.49
  -7  13  -1    0.18    0.34
   7  13   1    0.41    0.33
  -9 -13  -1   68.83    2.48
   9 -13   1   64.84    2.52
  -9 -13  -1   66.78    2.55
   9  13   1   62.28    2.96
  -9  13  -1   63.29    2.72
  -9  13  -1   66.28    2.46
   9  13   1   63.99    2.59
 -11 -13  -1   68.77    2.69
 -11 -13  -1   69.46    2.56
 -11 -13  -1   66.32    2.66
  11 -13   1   67.81    2.65
 -11  13  -1   65.34    2.88
  11  13   1   65.03    3.20
  11  13   1   59.12    3.48
 -11  13  -1   72.21    2.61
 -13 -13  -1    6.28    0.89
 -13 -13  -1    5.22    0.72
  13  13   1    4.22    0.75
 -13  13  -1    4.64    0.89
  13  13   1    3.16    1.11
 -13  13  -1    5.71    0.87
 -15 -13  -1    4.83    0.72
 -15 -13  -1    4.10    0.79
 -15 -13  -1    4.90    0.98
  15  13   1    4.26    1.39
  15  13   1    4.58    0.85
 -15  13  -1    4.19    1.04
 -17 -13  -1   20.80    1.71
 -17 -13  -1   17.23    1.81
  17  13   1   21.76    3.01
  17  13   1   17.59    1.64
 -17  13  -1   17.97    2.15
 -16 -14   1   22.70    1.95
 -16 -14   1   23.09    1.75
  16  14  -1   25.79    1.84
  16  14  -1   24.77    3.19
 -14 -14   1    4.70    1.07
 -14 -14   1    2.35    0.68
 -14 -14   1    4.33    0.96
  14  14  -1    3.90    1.51
 -14  14   1    4.28    1.00
  14  14  -1    3.59    0.79
 -12 -14   1   15.61    1.15
  12 -14  -1   16.34    1.25
 -12 -14   1   17.32    1.29
  12  14  -1   15.14    2.07
  12  14  -1   15.30    1.32
 -12  14   1   14.44    1.38
  10 -14  -1   47.95    2.15
 -10 -14   1   52.50    2.07
 -10 -14   1   50.21    2.19
 -10  14   1   52.61    2.30
  10  14  -1   47.56    2.26
  -8 -14   1   90.73    4.33
  -8 -14   1  104.99    3.53
  -8  14   1  105.88    3.48
   8  14  -1  101.46    3.71
  -8  14   1   98.94    3.67
   8  14  -1   97.93    4.13
  -6 -14   1   43.52    1.85
  -6 -14   1   44.30    1.93
   6 -14  -1   44.17    1.92
  -6 -14   1   46.55    2.05
   6  14  -1   48.61    2.02
  -6  14   1   43.01    1.98
  -6  14   1   47.48    1.81
   6  14  -1   44.11    2.35
   4 -14  -1   41.74    1.79
  -4 -14   1   40.02    1.77
  -4 -14   1   43.58    1.77
   4  14  -1   39.31    2.11
   4  14  -1   42.28    1.82
  -4  14   1   43.31    1.70
  -4  14   1   40.71    1.86
   2 -14  -1  234.16    7.51
  -2 -14   1  228.27    7.44
  -2 -14   1  238.85    7.46
   2 -14  -1  229.75    7.45
   2  14  -1  234.29    7.47
   2  14  -1  228.74    7.82
  -2  14   1  230.30    7.60
  -2  14   1  243.32    7.37
   0 -14  -1   82.22    2.97
   0 -14   1   80.68    2.97
   0 -14   1   82.01    3.01
   0 -14  -1   81.69    3.01
   0  14  -1   78.16    3.23
   0  14   1   84.28    2.92
   0  14   1   83.40    3.19
   0  14  -1   83.89    2.98
  -2 -14  -1    0.87    0.34
  -2 -14  -1    0.64    0.33
   2 -14   1    0.78    0.32
   2  14   1    0.79    0.36
  -2  14  -1    1.04    0.51
  -2  14  -1    0.79    0.35
   2  14   1    0.27    0.44
  -4 -14  -1    8.22    0.74
   4 -14   1    9.42    0.79
  -4 -14  -1    8.60    0.78
   4  14   1   11.18    0.82
  -4  14  -1    9.57    0.82
  -4  14  -1    9.45    0.97
   4  14   1    8.06    1.04
   6 -14   1   55.81    2.20
  -6 -14  -1   55.25    2.20
  -6 -14  -1   54.18    2.15
   6  14   1   49.98    2.50
  -6  14  -1   56.67    2.14
   6  14   1   54.60    2.22
  -6  14  -1   50.71    2.35
   8 -14   1   72.71    3.36
  -8 -14  -1   74.03    2.99
  -8 -14  -1   78.90    2.83
   8  14   1   71.16    2.90
   8  14   1   74.93    3.35
  -8  14  -1   82.80    2.85
  10 -14   1   61.00    2.45
 -10 -14  -1   60.43    2.36
 -10 -14  -1   58.48    2.44
 -10  14  -1   63.85    2.41
  10  14   1   52.51    2.90
 -10  14  -1   56.60    2.65
  10  14   1   59.66    2.51
 -12 -14  -1    4.23    0.73
  12 -14   1    4.39    0.71
 -12 -14  -1    5.44    0.73
  12  14   1    5.66    1.27
 -12  14  -1    5.43    0.97
  12  14   1    5.68    0.83
 -14 -14  -1  155.85    5.36
 -14 -14  -1  157.97    5.19
 -14 -14  -1  151.72    5.33
 -14  14  -1  147.05    5.62
  14  14   1  151.07    5.43
  14  14   1  146.46    6.09
 -16 -14  -1   78.19    3.48
 -16 -14  -1   83.48    3.43
  16  14   1   84.60    4.53
 -16  14  -1   83.95    3.85
  16  14   1   82.82    3.51
 -15 -15   1   16.16    1.60
  15  15  -1   11.90    2.02
 -15  15   1   14.15    1.80
  15  15  -1   14.23    1.61
 -13 -15   1  109.42    4.06
 -13 -15   1  116.78    4.39
  13  15  -1  103.64    4.96
  13  15  -1  104.23    4.14
 -13  15   1  105.99    4.17
 -11 -15   1   49.11    2.58
 -11 -15   1   52.55    2.33
  11 -15  -1   52.51    2.32
  11  15  -1   54.34    3.11
  11  15  -1   52.45    2.45
 -11  15   1   52.37    2.44
   9 -15  -1   26.30    1.47
  -9 -15   1   24.62    1.44
  -9 -15   1   25.87    1.39
  -9  15   1   24.50    1.55
   9  15  -1   23.99    2.06
   9  15  -1   25.99    1.58
   7 -15  -1   87.44    3.29
  -7 -15   1   91.39    3.32
  -7 -15   1   93.11    3.25
   7  15  -1   84.51    3.38
  -7  15   1   88.86    3.37
   7  15  -1   86.28    3.88
  -5 -15   1   74.82    2.81
   5  15  -1   76.90    3.40
   5  15  -1   75.06    2.91
  -5  15   1   80.26    2.76
  -5  15   1   68.18    3.10
   3 -15  -1   47.98    2.03
  -3 -15   1   46.65    2.00
  -3 -15   1   46.62    2.00
   3  15  -1   47.88    2.43
  -3  15   1   53.14    1.96
   3  15  -1   46.21    2.04
  -3  15   1   44.44    2.12
  -1 -15   1   25.25    1.38
   1 -15  -1   27.48    1.40
  -1 -15   1   27.59    1.43
   1 -15  -1   27.81    1.45
   1  15  -1   28.46    1.44
  -1  15   1   27.27    1.58
   1  15  -1   28.68    1.73
  -1  15   1   29.28    1.38
  -1 -15  -1   49.61    2.12
   1 -15   1   52.13    2.09
  -1 -15  -1   51.98    2.11
   1  15   1   52.80    2.08
  -1  15  -1   50.24    2.08
   1  15   1   48.50    2.31
  -1  15  -1   48.49    2.36
  -3 -15  -1   52.13    2.15
  -3 -15  -1   52.38    2.15
   3 -15   1   49.45    2.12
  -3  15  -1   49.78    2.36
  -3  15  -1   53.31    2.13
   3  15   1   54.89    2.16
   3  15   1   50.00    2.43
  -5 -15  -1  122.84    4.39
  -5  15  -1  131.84    4.40
   5  15   1  130.68    4.46
  -7 -15  -1    6.70    0.85
   7 -15   1    7.83    0.86
  -7 -15  -1    8.54    0.87
   7  15   1    8.70    0.93
  -7  15  -1    7.63    0.91
  -7  15  -1    6.37    0.91
   7  15   1    9.33    1.34
  -9 -15  -1  118.12    4.15
  -9 -15  -1  116.43    4.08
   9 -15   1  117.00    4.13
   9  15   1  107.42    4.60
  -9  15  -1  123.11    4.07
   9  15   1  110.96    4.18
  -9  15  -1  113.54    4.36
 -11 -15  -1   54.89    2.30
  11 -15   1   52.90    2.35
 -11 -15  -1   53.19    2.36
  11  15   1   53.25    2.47
  11  15   1   53.01    3.00
 -11  15  -1   52.51    2.64
 -13 -15  -1   11.39    1.31
 -13 -15  -1    9.10    1.22
  13  15   1   10.49    1.71
 -13  15  -1   11.32    1.57
  13  15   1   10.01    1.37
 -15 -15  -1    0.51    0.76
  15  15   1    1.00    1.48
 -15  15  -1   -1.59    1.02
  15  15   1    0.97    0.81
 -12 -16   1   40.98    2.14
  12 -16  -1   42.72    2.17
  12  16  -1   44.62    2.34
  12  16  -1   43.58    3.18
 -12  16   1   43.41    2.31
  10 -16  -1   68.12    2.84
 -10 -16   1   71.54    2.75
 -10 -16   1   64.25    2.80
  10  16  -1   62.37    3.51
  10  16  -1   68.10    2.93
 -10  16   1   70.30    2.97
  -8 -16   1   14.23    1.18
  -8 -16   1   12.38    1.14
   8 -16  -1   12.68    1.12
   8  16  -1   13.95    1.78
   8  16  -1   13.23    1.25
  -8  16   1   10.72    1.23
   6 -16  -1   14.57    1.13
  -6 -16   1   16.66    1.16
   6  16  -1   14.27    1.22
  -6  16   1   13.65    1.24
   6  16  -1   13.91    1.72
  -4 -16   1    5.49    0.72
  -4 -16   1    6.05    0.84
   4 -16  -1    7.06    0.85
   4  16  -1    6.83    1.06
  -4  16   1    5.85    0.69
  -4  16   1    6.51    1.00
   4  16  -1    7.40    0.96
   2 -16  -1  171.69    5.76
  -2 -16   1  162.46    5.78
  -2 -16   1  167.26    5.75
   2  16  -1  168.70    6.18
   2  16  -1  182.31    5.83
  -2  16   1  169.15    5.95
  -2  16   1  183.57    5.70
   0 -16  -1   91.43    3.88
   0 -16   1  106.24    3.80
   0 -16  -1  108.44    3.81
   0  16  -1  103.83    4.15
   0  16   1  116.79    3.80
   0  16   1   98.92    4.00
   0  16  -1  116.49    3.86
  -2 -16  -1   -0.73    0.53
  -2 -16  -1    0.21    0.46
   2 -16   1   -0.40    0.38
  -2  16  -1   -0.19    0.47
   2  16   1    0.09    0.46
  -2  16  -1    0.89    0.60
   2  16   1    0.62    0.63
  -4 -16  -1   32.39    1.65
   4 -16   1   29.93    1.60
  -4 -16  -1   30.68    1.61
  -4  16  -1   35.68    1.68
   4  16   1   29.61    1.95
   4  16   1   34.02    1.66
  -4  16  -1   33.06    1.91
   6 -16   1  105.59    3.92
  -6 -16  -1  107.92    3.94
  -6 -16  -1  108.58    3.91
  -6  16  -1  116.80    3.91
  -6  16  -1  109.21    4.18
   6  16   1  106.04    4.39
   8 -16   1   63.24    2.63
  -8 -16  -1   62.15    2.57
  -8 -16  -1   63.10    2.62
   8  16   1   61.37    3.14
  -8  16  -1   60.91    2.84
   8  16   1   66.80    2.72
  10 -16   1    1.29    0.62
 -10 -16  -1    0.52    0.58
 -10 -16  -1    2.18    0.64
  10  16   1    2.05    0.65
  10  16   1    1.72    1.07
 -10  16  -1    0.00    0.79
  12 -16   1   17.51    1.42
 -12 -16  -1   12.45    1.42
 -12 -16  -1   16.43    1.47
  12  16   1   17.37    1.54
  12  16   1   19.43    2.37
 -12  16  -1   15.90    1.77
  11 -17  -1   11.63    1.32
 -11 -17   1    9.80    1.30
  11  17  -1   10.04    1.77
  11  17  -1   10.45    1.46
 -11  17   1    9.95    1.56
   9 -17  -1    3.45    0.77
  -9 -17   1    2.71    0.79
  -9 -17   1    2.75    0.70
   9  17  -1    2.95    1.28
  -9  17   1    1.35    0.81
   9  17  -1    4.32    0.85
  -7 -17   1   83.51    3.33
  -7 -17   1   90.62    3.33
   7 -17  -1   86.68    3.35
  -7  17   1   76.76    3.37
   7  17  -1   85.29    3.98
   7  17  -1   88.99    3.47
  -5 -17   1   68.73    2.76
  -5 -17   1   67.96    2.76
   5 -17  -1   66.53    2.75
   5  17  -1   65.95    3.30
  -5  17   1   64.13    2.88
   5  17  -1   69.50    2.88
  -3 -17   1    0.94    0.61
  -3 -17   1    0.90    0.52
   3 -17  -1    1.24    0.52
   3  17  -1    1.75    0.79
  -3  17   1    1.46    0.68
   3  17  -1   -0.63    0.57
   1 -17  -1    0.18    0.44
  -1 -17   1    0.00    0.45
   1  17  -1   -0.15    0.55
  -1  17   1   -0.06    0.60
   1  17  -1    0.99    0.70
  -1  17   1   -0.57    0.52
   1 -17   1   31.49    1.68
  -1 -17  -1   30.96    1.75
  -1 -17  -1   32.56    1.71
  -1  17  -1   33.69    2.05
   1  17   1   37.29    1.77
  -1  17  -1   34.51    1.78
   1  17   1   33.03    1.98
   3 -17   1  111.88    4.13
  -3 -17  -1  111.34    4.12
  -3 -17  -1  113.97    4.16
  -3  17  -1  122.21    4.16
  -3  17  -1  109.86    4.42
   3  17   1  119.74    4.18
   3  17   1  112.26    4.52
  -5 -17  -1   28.95    1.64
  -5 -17  -1   28.89    1.65
   5 -17   1   31.18    1.65
   5  17   1   27.94    2.07
  -5  17  -1   26.34    1.89
  -5  17  -1   31.75    1.70
   5  17   1   30.05    1.72
   7 -17   1    8.56    0.97
  -7 -17  -1    8.48    1.17
  -7 -17  -1    9.42    1.14
   7  17   1    8.28    1.32
   7  17   1    9.50    1.26
  -7  17  -1    9.61    1.41
  -9 -17  -1   66.11    2.80
   9 -17   1   69.05    2.82
  -9 -17  -1   64.14    2.75
   9  17   1   63.05    3.43
   9  17   1   68.28    2.92
  -9  17  -1   61.81    3.03
  11 -17   1   44.25    2.25
 -11 -17  -1   47.60    2.23
 -11 -17  -1   46.44    2.33
 -11  17  -1   46.72    2.62
  11  17   1   40.84    3.07
  11  17   1   43.78    2.37
  -8 -18   1   42.89    2.20
  -8 -18   1   41.07    2.13
   8 -18  -1   40.78    2.11
  -8  18   1   38.62    2.26
   8  18  -1   43.22    3.03
   8  18  -1   41.45    2.32
  -6 -18   1   12.52    1.40
   6 -18  -1   13.06    1.31
  -6 -18   1   12.25    1.26
   6  18  -1    8.46    1.13
  -6  18   1   13.33    1.46
   6  18  -1    9.89    1.44
   4 -18  -1   21.85    1.47
  -4 -18   1   23.07    1.53
   4  18  -1   21.58    2.02
  -4  18   1   20.89    1.70
   4  18  -1   23.54    1.64
   2 -18  -1   57.81    2.61
  -2 -18   1   57.69    2.60
   2  18  -1   64.07    3.15
  -2  18   1   62.19    2.88
   2  18  -1   67.88    2.80
   0 -18  -1   44.76    2.12
   0 -18   1   41.73    2.09
   0  18  -1   48.37    2.23
   0  18   1   41.59    2.41
   0  18  -1   43.97    2.54
  -2 -18  -1    0.40    0.55
   2 -18   1    0.87    0.59
  -2 -18  -1    0.31    0.66
   2  18   1    1.14    0.70
  -2  18  -1   -0.69    0.69
   2  18   1   -0.25    0.79
  -2  18  -1    0.79    0.82
  -4 -18  -1   38.05    1.97
   4 -18   1   30.94    1.83
  -4 -18  -1   35.55    1.93
  -4  18  -1   33.59    2.18
   4  18   1   42.82    2.08
   4  18   1   33.57    2.33
  -6 -18  -1    5.95    0.90
   6 -18   1    6.88    0.94
  -6 -18  -1    6.33    0.98
  -6  18  -1    5.07    1.09
   6  18   1    5.24    0.96
   6  18   1    7.96    1.23
   8 -18   1   31.95    1.82
  -8 -18  -1   30.22    1.90
  -8 -18  -1   30.57    1.87
   8  18   1   32.47    1.99
  -8  18  -1   24.09    2.08
   8  18   1   29.11    2.47
  -5 -19   1    6.29    0.97
   5 -19  -1    5.66    0.92
   5  19  -1    9.57    1.55
  -5  19   1   11.06    1.57
   3 -19  -1    0.11    0.62
  -3 -19   1   -0.14    0.66
  -3  19   1    1.00    0.90
   3  19  -1    0.19    0.85
   3  19  -1    2.99    1.10
   1 -19  -1    2.65    0.69
  -1 -19   1    2.14    0.67
   1  19  -1    1.20    1.00
  -1  19   1    2.61    0.97
   1  19  -1    1.57    0.83
   1 -19   1    5.43    0.84
  -1 -19  -1    3.51    0.76
  -1  19  -1    4.25    1.14
   1  19   1    5.50    1.12
  -3 -19  -1    7.54    1.06
   3 -19   1    9.01    1.08
  -3 -19  -1    7.19    0.93
  -3  19  -1    9.31    1.32
   3  19   1    9.58    1.18
   3  19   1    6.79    1.29
  -5 -19  -1    5.40    0.93
   5 -19   1    5.29    0.90
  -5 -19  -1   10.05    1.39
   5  19   1    5.72    1.06
   5  19   1    5.30    1.28
  -5  19  -1    5.27    1.17
 -22   0   2   25.44    1.99
 -22   0   2   26.91    2.77
 -22   0   2   27.18    3.17
  20   0  -2  113.79    3.83
 -20   0   2  115.17    4.95
 -20   0   2  118.26    5.22
 -20   0   2  110.91    4.31
 -18   0   2  114.89    4.17
 -18   0   2  112.63    4.67
 -18   0   2  116.79    4.94
  18   0  -2  114.62    3.80
 -16   0   2   50.76    2.54
 -16   0   2   51.36    2.69
  16   0  -2   50.92    1.89
 -16   0   2   50.40    2.15
 -14   0   2   48.95    2.28
  14   0  -2   46.07    1.75
  14   0  -2   50.33    2.13
 -14   0   2   46.80    1.93
 -12   0   2  496.74   15.24
  12   0  -2  472.68   14.75
  12   0  -2  491.25   14.76
  12   0  -2  517.15   15.03
 -12   0   2  474.98   14.90
  10   0  -2  109.84    3.33
 -10   0   2  101.66    3.65
  10   0  -2   96.71    3.30
 -10   0   2  101.73    3.41
  10   0  -2  109.59    3.53
  -8   0   2   14.64    0.87
   8   0  -2   16.88    0.68
   8   0  -2   16.83    0.67
  -8   0   2   16.45    0.73
   8   0  -2   15.79    0.80
  -6   0   2   28.06    1.15
  -6   0   2   26.89    1.02
   6   0  -2   28.64    1.10
   6   0  -2   28.73    0.99
   6   0  -2   31.00    1.00
  -4   0   2  462.44   14.07
  -4   0   2  447.12   14.16
   4   0  -2  479.39   14.05
   4   0  -2  478.50   14.09
   4   0  -2  466.84   14.10
  -4   0   2  450.74   14.07
  -4   0   2  507.76   14.15
  -2   0   2  505.19   15.30
   2   0  -2  506.11   15.31
   2   0  -2  521.38   15.37
  -2   0   2  512.21   15.54
  -2   0   2  506.86   15.64
  -2   0   2  537.57   15.44
  -2   0   2  499.49   15.52
   2   0  -2  536.73   15.48
   2   0  -2  527.43   15.45
   2   0  -2  497.22   15.47
   0   0  -2   22.34    0.78
   0   0   2   21.84    0.77
   0   0   2   22.15    0.71
   0   0  -2   21.67    0.75
   0   0   2   21.56    0.77
   0   0  -2   21.83    0.77
   0   0  -2   21.55    0.71
   0   0   2   21.87    0.75
  -2   0  -2   34.23    1.20
   2   0   2   35.61    1.19
  -2   0  -2   35.07    1.17
  -2   0  -2   32.27    1.12
   2   0   2   35.97    1.21
   4   0   2  248.60    7.73
   4   0   2  255.85    7.62
   4   0   2  244.32    7.69
  -4   0  -2  250.57    7.74
  -4   0  -2  274.34    7.74
  -4   0  -2  244.41    7.62
   6   0   2  625.34   18.44
  -6   0  -2  648.78   18.47
  -6   0  -2  592.32   18.45
   6   0   2  617.80   18.27
   6   0   2  578.29   18.38
  -6   0  -2  613.56   18.58
   8   0   2   25.52    1.34
  -8   0  -2   29.38    1.14
  -8   0  -2   29.00    1.33
   8   0   2   29.03    1.12
 -10   0  -2   11.57    0.91
  10   0   2   12.36    0.78
 -12   0  -2  207.90    6.92
 -12   0  -2  204.24    6.56
 -14   0  -2  233.90    7.73
 -14   0  -2  250.68    8.19
 -16   0  -2    0.41    0.37
 -16   0  -2    0.21    0.61
 -18   0  -2   20.86    1.43
 -18   0  -2   22.89    2.07
  20   0   2   13.38    1.16
 -20   0  -2   10.64    1.33
 -20   0  -2   16.71    2.24
 -22   0  -2   53.72    2.78
 -22   0  -2   55.90    3.91
  22   0   2   62.48    2.50
 -22   0  -2   50.48    3.79
 -23  -1   2   57.32    3.80
 -23  -1   2   52.77    2.87
 -23  -1   2   57.81    4.15
 -23   1   2   49.96    4.19
 -23   1   2   58.80    3.70
 -23   1   2   51.28    2.91
 -21  -1   2    4.99    1.40
 -21  -1   2    6.30    1.00
 -21  -1   2    5.33    1.53
 -21   1   2    6.44    1.04
 -21   1   2    7.06    1.58
  21   1  -2    5.88    0.82
 -21   1   2    5.55    1.39
 -19  -1   2    0.36    0.53
  19  -1  -2   -0.14    0.43
 -19  -1   2    1.20    1.23
 -19  -1   2    0.80    0.95
 -19   1   2    0.35    0.52
 -19   1   2    1.38    0.85
  19   1  -2   -0.29    0.44
 -19   1   2    1.89    0.99
  17  -1  -2   20.28    1.01
 -17  -1   2   22.40    1.93
 -17  -1   2   21.45    1.80
 -17  -1   2   22.75    1.32
 -17   1   2   20.23    1.71
 -17   1   2   22.56    1.32
  17   1  -2   22.29    1.13
 -15  -1   2  186.28    6.56
 -15  -1   2  176.80    6.37
  15  -1  -2  180.22    5.66
 -15  -1   2  177.99    5.97
 -15   1   2  179.90    5.94
  15   1  -2  188.91    6.14
 -15   1   2  179.90    6.34
  15   1  -2  182.28    5.77
  13  -1  -2  194.19    6.08
  13  -1  -2  189.74    5.82
 -13  -1   2  188.96    6.50
 -13  -1   2  185.14    6.38
  13  -1  -2  178.61    5.79
 -13  -1   2  182.03    6.04
 -13   1   2  183.16    6.00
  13   1  -2  187.03    5.89
  13   1  -2  202.44    6.22
 -13   1   2  183.29    6.33
  11  -1  -2   21.05    0.88
 -11  -1   2   22.40    1.28
  11  -1  -2   22.99    1.22
  11  -1  -2   22.09    0.91
 -11  -1   2   22.21    1.03
 -11  -1   2   22.88    1.34
  11   1  -2   22.67    1.19
 -11   1   2   22.74    1.23
  11   1  -2   21.00    0.94
  -9  -1   2  214.99    7.03
  -9  -1   2  223.88    6.82
  -9  -1   2  215.17    7.11
   9  -1  -2  236.96    6.67
   9  -1  -2  231.96    6.84
   9  -1  -2  207.74    6.65
   9   1  -2  202.42    6.72
   9   1  -2  227.91    6.94
  -9   1   2  216.86    6.97
  -9   1   2  211.52    6.76
   9   1  -2  228.09    6.75
  -7  -1   2  260.23    8.47
  -7  -1   2  278.56    8.74
   7  -1  -2  269.84    8.36
   7  -1  -2  286.15    8.49
  -7  -1   2  272.41    8.65
   7  -1  -2  296.43    8.49
   7  -1  -2  292.12    8.37
  -7   1   2  275.64    8.59
   7   1  -2  292.44    8.60
   7   1  -2  283.85    8.61
  -7   1   2  264.26    8.43
   7   1  -2  308.95    8.46
   7   1  -2  251.28    8.42
   5  -1  -2   87.53    2.77
  -5  -1   2   87.13    3.06
  -5  -1   2   90.89    2.88
   5  -1  -2   97.79    2.86
   5  -1  -2   85.38    2.79
  -5  -1   2   94.43    3.01
   5  -1  -2   94.04    2.87
   5   1  -2   94.95    2.98
   5   1  -2   87.13    2.84
   5   1  -2   97.46    2.87
   5   1  -2   93.46    2.96
  -5   1   2   90.71    2.92
  -5   1   2   89.15    2.82
  -3  -1   2   70.60    2.21
  -3  -1   2   69.79    2.30
  -3  -1   2   70.46    2.14
  -3  -1   2   66.55    2.23
   3  -1  -2   69.08    2.10
   3  -1  -2   65.65    2.10
  -3  -1   2   67.31    2.15
  -3   1   2   70.13    2.08
   3   1  -2   69.68    2.21
   3   1  -2   68.95    2.22
  -3   1   2   68.12    2.12
  -3   1   2   67.40    2.14
   3   1  -2   72.82    2.15
  -3   1   2   67.02    2.12
  -3   1   2   63.80    2.08
   3   1  -2   74.71    2.30
   3   1  -2   69.41    2.14
  -3   1   2   67.72    2.10
  -1  -1   2   13.54    0.54
   1  -1  -2   13.89    0.47
   1  -1  -2   15.24    0.55
   1  -1  -2   14.38    0.45
   1  -1  -2   13.91    0.46
  -1  -1   2   13.73    0.59
   1  -1  -2   14.15    0.45
  -1  -1   2   13.02    0.50
   1   1  -2   14.31    0.50
   1   1  -2   13.68    0.54
  -1   1   2   14.14    0.47
   1   1  -2   15.52    0.56
   1   1  -2   14.44    0.50
  -1   1   2   13.90    0.44
  -1   1   2   13.45    0.54
  -1   1   2   13.92    0.44
  -1   1   2   13.82    0.47
  -1  -1  -2  362.75   10.42
   1  -1   2  350.02   10.37
   1  -1   2  326.03   10.36
   1  -1   2  353.32   10.61
   1  -1   2  356.82   10.42
  -1  -1  -2  360.49   10.36
  -1  -1  -2  326.61   10.44
   1  -1   2  347.55   10.49
  -1  -1  -2  314.70   10.37
   1   1   2  356.19   10.47
  -1   1  -2  350.12   10.39
   1   1   2  342.53   10.35
  -1   1  -2  347.95   10.35
   1   1   2  328.10   10.39
  -1   1  -2  348.16   10.47
  -1   1  -2  360.39   10.37
   1   1   2  356.14   10.54
  -1   1  -2  349.83   10.58
   3  -1   2  600.68   19.08
   3  -1   2  663.74   19.07
   3  -1   2  626.02   18.80
  -3  -1  -2  621.78   19.18
   3   1   2  589.20   18.96
  -3   1  -2  660.29   18.82
  -3   1  -2  667.79   18.89
  -3   1  -2  588.75   19.07
  -3   1  -2  649.89   19.21
   3   1   2  611.06   18.82
  -3   1  -2  656.78   18.81
   5  -1   2    0.65    0.21
   5  -1   2    0.64    0.14
  -5  -1  -2    0.52    0.21
  -5  -1  -2    0.82    0.15
   5  -1   2    0.72    0.16
  -5  -1  -2    0.98    0.23
   5   1   2    0.83    0.24
   5   1   2    0.49    0.13
  -5   1  -2    0.79    0.18
  -5   1  -2    0.64    0.20
   5   1   2    0.51    0.15
  -5   1  -2    0.75    0.12
  -5   1  -2    0.58    0.12
   7  -1   2  346.97   11.10
   7  -1   2  377.99   10.98
  -7  -1  -2  354.08   11.21
  -7  -1  -2  371.86   11.20
  -7  -1  -2  350.94   11.01
   7  -1   2  367.08   11.15
  -7   1  -2  351.26   11.18
  -7   1  -2  384.84   10.93
  -7   1  -2  398.05   11.23
   7   1   2  341.49   11.10
  -7   1  -2  357.61   11.00
   7   1   2  382.09   11.21
   7   1   2  351.52   10.99
   9  -1   2  325.60    9.14
  -9  -1  -2  303.19    9.08
  -9  -1  -2  300.01    9.34
   9  -1   2  285.26    9.18
   9   1   2  285.16    9.19
  -9   1  -2  295.34    9.31
  -9   1  -2  271.19    9.16
 -11  -1  -2   77.27    3.02
 -11  -1  -2   76.90    2.72
 -11   1  -2   76.61    2.98
 -11   1  -2   77.57    2.70
 -13  -1  -2   11.69    1.09
 -13  -1  -2    9.11    0.72
 -13   1  -2    9.93    0.73
 -13   1  -2   10.10    1.01
 -15  -1  -2   49.24    2.52
 -15  -1  -2   51.31    2.11
 -15   1  -2   48.51    2.47
 -15   1  -2   49.16    2.07
 -17  -1  -2   84.71    3.28
 -17  -1  -2   85.70    3.84
 -17   1  -2   83.34    3.73
 -17   1  -2   86.17    3.26
 -19  -1  -2   52.79    3.94
 -19  -1  -2   49.87    2.43
  19  -1   2   54.70    2.17
 -19   1  -2   52.67    2.46
  19   1   2   52.89    2.80
 -19   1  -2   54.23    3.10
  21  -1   2   10.89    1.21
 -21  -1  -2   13.09    1.48
 -21  -1  -2    9.89    1.81
 -21  -1  -2   12.80    2.04
  21   1   2   12.79    1.23
 -21   1  -2    9.98    1.40
 -21   1  -2   11.29    1.80
 -23  -1  -2   55.25    4.23
 -23  -1  -2   59.60    4.19
 -23  -1  -2   51.36    2.95
 -23   1  -2   53.40    4.03
  23   1   2   60.21    2.65
 -23   1  -2   58.22    4.18
 -23   1  -2   55.78    2.89
 -22  -2   2    0.54    1.68
 -22  -2   2    3.04    1.50
 -22  -2   2    4.96    1.03
 -22   2   2    4.77    1.70
 -22   2   2    5.79    1.03
 -22   2   2    7.74    1.56
 -20  -2   2  139.91    5.20
 -20  -2   2  139.67    5.85
 -20  -2   2  143.19    6.01
 -20   2   2  142.10    6.01
  20   2  -2  147.61    4.81
 -20   2   2  144.70    5.71
 -18  -2   2  111.17    4.77
 -18  -2   2  111.64    4.63
 -18  -2   2  109.27    4.06
  18  -2  -2  106.78    3.54
 -18   2   2  105.36    4.43
  18   2  -2  111.11    3.76
 -18   2   2  107.46    3.97
 -16  -2   2    1.52    0.68
  16  -2  -2    1.03    0.29
 -16  -2   2    0.73    0.68
 -16  -2   2    0.91    0.43
  16   2  -2    1.59    1.19
 -16   2   2    2.32    0.48
 -16   2   2    1.02    0.58
  16   2  -2    1.68    0.40
 -14  -2   2   86.69    3.22
  14  -2  -2   94.04    3.20
 -14  -2   2   85.68    3.56
  14  -2  -2   85.06    2.87
 -14  -2   2   92.00    3.71
  14   2  -2   88.52    3.07
 -14   2   2   89.68    3.15
  14   2  -2   93.64    3.46
 -14   2   2   90.88    3.50
 -12  -2   2   45.02    1.78
  12  -2  -2   48.32    1.79
  12  -2  -2   46.16    1.55
 -12  -2   2   45.22    2.06
 -12  -2   2   43.63    2.10
  12  -2  -2   42.32    1.51
  12   2  -2   43.14    1.96
  12   2  -2   44.04    1.68
 -12   2   2   43.68    1.71
 -12   2   2   43.42    1.95
 -10  -2   2   92.94    3.07
  10  -2  -2   79.47    3.13
  10  -2  -2   87.74    2.82
  10  -2  -2   96.59    2.84
 -10  -2   2   90.19    3.37
 -10  -2   2   92.86    3.32
 -10   2   2   89.26    2.97
 -10   2   2   91.71    3.21
  10   2  -2   95.38    3.23
  10   2  -2   88.62    2.99
   8  -2  -2  173.88    4.97
  -8  -2   2  157.82    5.36
  -8  -2   2  159.98    5.17
   8  -2  -2  160.69    4.96
  -8  -2   2  161.45    5.43
   8  -2  -2  179.58    5.11
  -8   2   2  167.68    5.08
   8   2  -2  166.06    5.30
   8   2  -2  171.26    5.13
   8   2  -2  158.04    5.12
  -8   2   2  153.26    5.47
   6  -2  -2   86.50    2.53
  -6  -2   2   80.10    2.78
  -6  -2   2   75.56    2.62
  -6  -2   2   80.59    2.82
   6  -2  -2   79.03    2.44
   6  -2  -2   84.13    2.44
   6  -2  -2   83.07    2.53
   6   2  -2   86.20    2.62
   6   2  -2   78.78    2.60
   6   2  -2   78.61    2.75
  -6   2   2   82.57    2.55
  -6   2   2   77.37    2.63
   6   2  -2   78.89    2.72
  -6   2   2   79.14    2.53
  -6   2   2   83.84    2.58
  -4  -2   2  421.07   12.03
  -4  -2   2  382.15   12.19
  -4  -2   2  372.34   12.15
  -4  -2   2  388.86   12.05
  -4  -2   2  406.64   12.04
   4   2  -2  410.16   12.15
  -4   2   2  403.64   11.98
   4   2  -2  443.32   12.22
  -4   2   2  369.10   11.98
  -4   2   2  397.89   12.00
   4   2  -2  401.16   12.13
  -4   2   2  399.54   12.01
  -4   2   2  444.30   12.05
   4   2  -2  384.92   12.02
   4   2  -2  414.89   12.04
   2  -2  -2  915.73   27.91
   2  -2  -2  903.08   27.99
  -2  -2   2  932.12   28.18
  -2  -2   2  916.95   28.36
  -2  -2   2 1000.00   28.45
  -2  -2   2  890.62   27.68
   2   2  -2  896.66   28.30
   2   2  -2  972.03   28.00
   2   2  -2  998.21   28.40
  -2   2   2  949.42   27.96
  -2   2   2  922.71   27.90
   2   2  -2  891.18   28.04
   2   2  -2  931.35   27.67
   2   2  -2  937.82   28.24
   0  -2  -2   25.84    0.88
   0  -2   2   24.87    0.95
   0  -2   2   25.05    0.87
   0  -2   2   26.15    0.92
   0  -2  -2   25.88    0.82
   0  -2   2   25.21    0.82
   0  -2  -2   24.86    0.83
   0  -2  -2   25.43    0.81
   0   2  -2   25.20    0.92
   0   2  -2   25.21    0.96
   0   2   2   26.15    0.85
   0   2   2   24.67    0.88
   0   2   2   26.28    0.82
   0   2  -2   24.83    0.87
   0   2   2   25.88    0.83
   2  -2   2  693.10   21.42
  -2  -2  -2  725.82   21.23
   2  -2   2  712.53   21.22
   2  -2   2  756.50   21.43
   2  -2   2  702.84   21.72
  -2  -2  -2  703.61   21.46
  -2  -2  -2  725.98   21.33
   2  -2   2  708.78   21.53
  -2  -2  -2  691.27   21.54
  -2  -2  -2  695.20   21.53
   2   2   2  703.05   21.33
   2   2   2  693.85   21.65
   2   2   2  733.50   21.72
  -2   2  -2  742.23   21.47
  -2   2  -2  728.43   21.40
  -2   2  -2  723.61   21.75
  -2   2  -2  691.64   21.25
  -2   2  -2  705.37   21.62
   4  -2   2  139.94    4.49
  -4  -2  -2  155.14    4.66
   4  -2   2  154.74    4.55
   4  -2   2  154.71    4.65
  -4  -2  -2  147.40    4.70
   4  -2   2  141.76    4.61
  -4  -2  -2  140.24    4.56
  -4   2  -2  141.86    4.55
   4   2   2  144.52    4.63
  -4   2  -2  152.54    4.65
  -4   2  -2  149.86    4.50
  -4   2  -2  146.84    4.67
  -4   2  -2  158.37    4.71
   4   2   2  153.46    4.71
   4   2   2  149.76    4.57
  -6  -2  -2  143.14    4.37
   6  -2   2  140.56    4.33
  -6  -2  -2  136.04    4.41
   6  -2   2  140.80    4.18
  -6  -2  -2  131.09    4.22
   6  -2   2  120.58    4.27
  -6   2  -2  142.88    4.15
  -6   2  -2  129.15    4.19
   6   2   2  123.35    4.29
  -6   2  -2  148.34    4.39
   6   2   2  134.38    4.22
  -6   2  -2  126.80    4.34
  -8  -2  -2   36.11    1.59
  -8  -2  -2   34.53    1.43
   8  -2   2   37.45    1.33
   8  -2   2   31.90    1.57
  -8   2  -2   36.76    1.36
  -8   2  -2   40.07    1.40
  -8   2  -2   35.14    1.57
   8   2   2   38.87    1.64
 -10  -2  -2    0.76    0.42
 -10  -2  -2    0.76    0.24
 -10   2  -2    0.63    0.33
 -10   2  -2    0.93    0.24
  10   2   2    0.95    0.29
 -12  -2  -2  186.61    6.32
 -12  -2  -2  184.79    5.96
 -12   2  -2  180.07    5.90
 -12   2  -2  186.15    6.26
 -14  -2  -2  182.74    6.00
 -14  -2  -2  183.50    6.43
 -14   2  -2  181.10    6.35
 -14   2  -2  181.90    5.95
 -16  -2  -2   49.44    2.13
 -16  -2  -2   48.44    2.61
 -16   2  -2   46.50    2.49
 -16   2  -2   46.50    2.05
 -18  -2  -2   24.55    2.26
 -18  -2  -2   24.81    1.74
 -18  -2  -2   26.41    2.11
  18  -2   2   27.74    1.34
 -18   2  -2   24.27    2.06
  18   2   2   26.33    1.42
 -18   2  -2   26.83    1.56
 -20  -2  -2  123.45    5.23
 -20  -2  -2  109.36    4.41
  20  -2   2  120.18    4.03
 -20  -2  -2  120.57    5.32
  20   2   2  122.52    4.19
 -20   2  -2  114.13    4.42
 -20   2  -2  112.32    5.04
 -22  -2  -2   22.86    1.88
 -22  -2  -2   22.93    2.74
 -22  -2  -2   28.08    3.35
  22   2   2   19.60    1.62
 -22   2  -2   19.11    1.85
 -22   2  -2   18.78    2.77
 -23  -3   2   12.53    1.82
 -23  -3   2   16.06    2.26
 -23  -3   2   23.75    3.49
 -23   3   2   17.33    2.54
 -23   3   2   15.17    2.07
 -23   3   2   18.33    1.94
 -21  -3   2    9.64    1.25
 -21  -3   2    6.79    1.54
 -21  -3   2   12.44    1.98
  21   3  -2   11.02    1.28
 -21   3   2   11.14    1.44
 -21   3   2   12.28    1.70
 -21   3   2   10.19    1.73
 -19  -3   2    0.22    1.07
 -19  -3   2   -0.07    1.55
 -19  -3   2    0.43    0.58
  19   3  -2    1.43    0.52
 -19   3   2    0.39    0.55
 -19   3   2    0.82    0.82
 -17  -3   2   28.32    1.59
 -17  -3   2   30.65    2.15
 -17  -3   2   27.79    2.12
 -17   3   2   28.44    1.91
  17   3  -2   29.34    1.41
 -17   3   2   29.96    1.54
 -15  -3   2   14.09    0.99
 -15  -3   2   13.21    1.45
 -15  -3   2   14.12    1.40
  15  -3  -2   13.15    0.66
  15   3  -2   12.45    1.38
 -15   3   2   12.82    0.90
 -15   3   2   11.12    1.13
  15   3  -2   13.98    0.90
  13  -3  -2   54.06    1.73
 -13  -3   2   49.39    2.41
 -13  -3   2   53.60    2.42
  13  -3  -2   49.66    1.68
 -13  -3   2   51.19    2.08
  13  -3  -2   55.67    2.00
 -13   3   2   49.76    2.23
 -13   3   2   52.52    1.98
  13   3  -2   51.95    1.97
  13   3  -2   52.59    2.30
  11  -3  -2   43.20    1.53
 -11  -3   2   37.46    1.88
 -11  -3   2   39.48    1.63
 -11  -3   2   41.14    1.91
  11  -3  -2   39.64    1.30
 -11   3   2   40.95    1.74
 -11   3   2   41.04    1.52
  11   3  -2   39.77    1.80
  11   3  -2   38.65    1.55
   9  -3  -2   64.20    1.97
  -9  -3   2   55.00    2.09
  -9  -3   2   56.58    2.36
   9  -3  -2   59.43    1.80
   9  -3  -2   62.57    1.81
  -9  -3   2   58.30    2.35
   9   3  -2   59.77    2.27
   9   3  -2   55.13    2.04
  -9   3   2   56.76    2.15
  -9   3   2   58.88    1.98
   7  -3  -2  138.94    3.85
  -7  -3   2  125.65    3.85
   7  -3  -2  130.72    3.85
  -7  -3   2  125.52    4.04
  -7  -3   2  124.43    4.24
  -7  -3   2  127.69    4.23
  -7   3   2  124.64    4.02
   7   3  -2  124.74    4.17
   7   3  -2  124.90    4.20
  -7   3   2  127.85    3.93
   7   3  -2  119.72    3.99
   7   3  -2  123.72    4.00
  -7   3   2  124.82    3.89
  -5  -3   2  144.86    4.72
   5  -3  -2  138.82    4.48
  -5  -3   2  144.25    4.40
  -5  -3   2  140.17    4.55
  -5  -3   2  139.08    4.68
   5   3  -2  151.37    4.69
  -5   3   2  152.36    4.49
   5   3  -2  155.31    4.70
   5   3  -2  158.37    4.55
  -5   3   2  143.40    4.46
   5   3  -2  150.18    4.68
  -5   3   2  148.40    4.47
  -5   3   2  143.65    4.39
   5   3  -2  137.65    4.52
   3  -3  -2   87.67    2.81
  -3  -3   2   84.16    2.86
  -3  -3   2   87.65    2.75
  -3  -3   2   90.56    3.00
   3  -3  -2   87.42    2.81
  -3  -3   2   87.11    2.96
   3   3  -2   92.42    2.97
   3   3  -2   88.17    2.85
  -3   3   2   94.67    2.81
   3   3  -2   94.91    2.97
  -3   3   2   94.74    2.82
   3   3  -2   95.36    2.87
   3   3  -2   94.02    3.00
   3   3  -2   95.09    2.75
   1  -3  -2  150.34    4.60
  -1  -3   2  145.16    4.58
  -1  -3   2  162.85    4.73
  -1  -3   2  151.50    4.76
   1  -3  -2  145.74    4.61
  -1  -3   2  154.84    4.63
  -1   3   2  152.46    4.60
   1   3  -2  146.63    4.57
  -1   3   2  149.54    4.63
   1   3  -2  164.07    4.79
   1   3  -2  162.60    4.75
   1   3  -2  155.79    4.74
   1   3  -2  154.68    4.65
   1   3  -2  150.53    4.64
  -1   3   2  140.23    4.55
  -1   3   2  158.65    4.62
  -1  -3  -2  291.31    8.87
   1  -3   2  294.08    9.02
   1  -3   2  280.45    8.86
   1  -3   2  289.06    8.90
   1  -3   2  310.08    8.98
   1  -3   2  296.68    8.89
  -1  -3  -2  303.26    8.91
  -1  -3  -2  297.20    8.91
  -1  -3  -2  285.61    8.85
   1   3   2  303.53    8.86
   1   3   2  300.54    8.95
  -1   3  -2  291.01    8.98
  -1   3  -2  316.72    9.06
   1   3   2  285.55    8.90
  -1   3  -2  295.99    8.87
  -1   3  -2  279.94    8.89
  -1   3  -2  312.59    8.91
   1   3   2  310.71    8.89
  -1   3  -2  304.45    8.86
  -3  -3  -2   83.69    2.71
  -3  -3  -2   84.18    2.81
   3  -3   2   83.30    2.67
  -3  -3  -2   85.67    2.64
   3  -3   2   92.63    2.80
   3  -3   2   91.64    2.70
  -3  -3  -2   88.01    2.77
   3  -3   2   84.94    2.75
  -3   3  -2   89.32    2.77
   3   3   2   91.60    2.74
  -3   3  -2   88.72    2.68
  -3   3  -2   81.11    2.80
   3   3   2   90.93    2.88
   3   3   2   74.56    2.74
  -3   3  -2   92.10    2.88
  -3   3  -2   83.41    2.71
   5  -3   2    1.12    0.15
  -5  -3  -2    0.98    0.24
  -5  -3  -2    0.78    0.16
   5  -3   2    0.67    0.17
   5  -3   2    0.48    0.14
  -5  -3  -2    0.44    0.20
   5  -3   2    1.06    0.24
  -5   3  -2    1.08    0.24
   5   3   2    0.50    0.22
  -5   3  -2    0.79    0.20
   5   3   2    0.70    0.16
  -5   3  -2    0.55    0.25
   5   3   2    0.79    0.19
  -5   3  -2    0.63    0.13
  -5   3  -2    0.71    0.14
   7  -3   2   20.90    0.99
  -7  -3  -2   23.23    0.98
   7  -3   2   24.72    0.91
  -7  -3  -2   23.52    1.14
  -7  -3  -2   23.18    1.15
   7   3   2   21.87    1.03
  -7   3  -2   23.36    0.94
  -7   3  -2   23.74    1.14
  -7   3  -2   24.07    0.90
  -7   3  -2   22.39    1.09
   7   3   2   24.82    1.19
  -9  -3  -2  190.63    5.96
   9  -3   2  194.20    5.84
  -9  -3  -2  196.46    6.24
   9  -3   2  178.68    6.00
  -9   3  -2  189.64    6.15
   9   3   2  182.49    6.04
 -11  -3  -2    4.68    0.52
 -11  -3  -2    3.86    0.71
 -11   3  -2    3.22    0.41
 -11   3  -2    2.70    0.52
 -13  -3  -2    6.07    0.91
 -13  -3  -2    5.25    0.62
 -13   3  -2    5.51    0.85
 -13   3  -2    5.68    0.58
 -15  -3  -2    0.09    0.35
 -15  -3  -2    0.50    0.70
 -15   3  -2    0.91    0.54
 -15   3  -2    0.81    0.35
 -17  -3  -2   77.41    3.16
 -17  -3  -2   88.72    3.69
 -17  -3  -2   78.87    3.76
 -17   3  -2   82.64    3.14
 -17   3  -2   79.77    3.61
 -19  -3  -2   71.06    3.10
 -19  -3  -2   75.41    3.75
  19  -3   2   78.80    2.71
 -19  -3  -2   73.82    3.96
  19   3   2   72.84    2.89
 -19   3  -2   71.42    3.59
 -19   3  -2   72.43    3.28
 -21  -3  -2    3.87    1.82
 -21  -3  -2    6.80    1.79
 -21  -3  -2    3.21    0.90
  21   3   2    4.26    0.81
 -21   3  -2    3.75    0.93
 -21   3  -2    0.91    1.25
 -22  -4   2    1.09    1.57
 -22  -4   2   -1.78    1.61
 -22  -4   2    0.22    0.79
 -22   4   2   -0.20    1.22
  22   4  -2   -0.44    0.77
 -22   4   2    3.88    1.56
 -22   4   2   -1.38    0.87
 -20  -4   2   17.40    1.52
 -20  -4   2   12.84    1.79
 -20  -4   2   13.37    1.80
  20   4  -2   16.19    1.29
 -20   4   2   16.55    1.97
 -18  -4   2   40.29    2.66
 -18  -4   2   44.23    2.81
 -18  -4   2   43.23    1.72
 -18  -4   2   43.69    2.35
 -18   4   2   43.68    2.04
 -18   4   2   40.68    2.56
  18   4  -2   45.02    1.95
 -16  -4   2    0.47    0.27
 -16  -4   2    1.11    0.75
 -16  -4   2    0.33    0.71
 -16  -4   2    0.65    0.42
 -16   4   2   -0.29    0.35
  16   4  -2   -0.39    0.82
 -16   4   2    0.01    0.53
  16   4  -2    0.61    0.37
 -14  -4   2   21.80    1.61
 -14  -4   2   21.31    1.20
 -14  -4   2   20.92    0.92
 -14  -4   2   20.93    1.60
 -14   4   2   21.29    1.08
  14   4  -2   21.17    1.10
  14   4  -2   19.42    1.48
 -14   4   2   19.74    1.33
 -12  -4   2    0.28    0.45
 -12  -4   2    0.56    0.22
 -12  -4   2    1.16    0.52
  12  -4  -2    0.60    0.35
 -12  -4   2    0.67    0.27
  12   4  -2    0.78    0.28
  12   4  -2    0.74    0.49
 -12   4   2    0.80    0.34
 -12   4   2    0.73    0.33
  10  -4  -2   85.56    2.56
 -10  -4   2   82.57    2.57
 -10  -4   2   78.80    3.07
 -10  -4   2   81.66    2.82
 -10  -4   2   74.71    3.04
 -10   4   2   79.86    2.86
  10   4  -2   78.33    2.75
  10   4  -2   78.58    3.00
 -10   4   2   81.38    2.65
  -8  -4   2   14.25    0.76
  -8  -4   2   14.09    0.94
  -8  -4   2   15.54    0.97
  -8  -4   2   14.88    0.58
   8   4  -2   15.30    0.75
  -8   4   2   14.31    0.61
  -8   4   2   14.34    0.74
   8   4  -2   13.76    0.88
  -6  -4   2    1.34    0.31
  -6  -4   2    2.48    0.38
  -6  -4   2    1.98    0.17
  -6  -4   2    1.82    0.28
   6  -4  -2    2.42    0.25
  -6   4   2    2.29    0.26
  -6   4   2    2.08    0.17
   6   4  -2    2.17    0.28
   6   4  -2    1.29    0.29
  -6   4   2    2.38    0.25
  -6   4   2    2.08    0.30
   6   4  -2    2.01    0.29
   6   4  -2    1.81    0.35
  -4  -4   2  191.29    6.07
  -4  -4   2  195.11    6.21
   4  -4  -2  186.42    6.01
   4  -4  -2  187.91    6.00
  -4  -4   2  199.01    6.22
  -4  -4   2  190.00    5.93
   4   4  -2  211.95    5.94
  -4   4   2  202.42    6.01
   4   4  -2  198.61    6.20
   4   4  -2  205.83    6.07
   4   4  -2  203.57    6.22
   4   4  -2  190.18    6.05
  -4   4   2  206.00    6.02
  -4   4   2  187.45    5.91
   4   4  -2  212.60    6.23
  -2  -4   2  101.89    3.01
  -2  -4   2   94.32    3.15
  -2  -4   2   90.79    3.01
   2  -4  -2   93.23    2.98
  -2  -4   2   95.97    2.93
   2  -4  -2   92.23    2.97
  -2  -4   2   89.93    3.11
   2   4  -2   94.18    3.12
   2   4  -2   95.96    3.02
   2   4  -2  101.54    3.17
  -2   4   2  101.89    2.98
   2   4  -2   98.69    2.93
   2   4  -2   94.69    3.13
   2   4  -2   95.85    3.01
  -2   4   2   98.85    2.98
   0  -4   2    7.77    0.45
   0  -4   2    7.78    0.35
   0  -4   2    7.25    0.35
   0  -4  -2    7.70    0.36
   0  -4   2    8.12    0.37
   0  -4   2    7.40    0.35
   0  -4   2    7.13    0.46
   0  -4  -2    7.39    0.34
   0   4   2    7.73    0.35
   0   4   2    8.27    0.32
   0   4  -2    7.78    0.34
   0   4  -2    7.73    0.50
   0   4   2    7.18    0.37
   0   4   2    8.07    0.36
   0   4  -2    8.01    0.46
   0   4  -2    7.08    0.36
   0   4   2    8.01    0.36
   0   4   2    6.99    0.34
   2  -4   2   44.99    1.65
  -2  -4  -2   43.60    1.47
   2  -4   2   44.84    1.48
  -2  -4  -2   48.56    1.53
  -2  -4  -2   45.09    1.48
   2  -4   2   43.84    1.50
   2  -4   2   47.71    1.49
   2  -4   2   45.57    1.59
   2   4   2   46.82    1.50
   2   4   2   45.40    1.50
  -2   4  -2   46.87    1.69
  -2   4  -2   43.47    1.51
   2   4   2   47.26    1.62
  -2   4  -2   48.40    1.52
  -2   4  -2   46.08    1.49
  -2   4  -2   44.85    1.61
  -2   4  -2   44.77    1.50
   2   4   2   43.86    1.51
  -4  -4  -2   43.22    1.41
  -4  -4  -2   41.50    1.47
  -4  -4  -2   43.90    1.61
   4  -4   2   40.69    1.48
   4  -4   2   44.72    1.44
  -4  -4  -2   44.87    1.54
   4  -4   2   42.35    1.53
   4  -4   2   41.95    1.43
  -4   4  -2   45.10    1.54
  -4   4  -2   42.23    1.65
   4   4   2   42.65    1.64
  -4   4  -2   44.54    1.44
   4   4   2   44.54    1.50
   4   4   2   42.17    1.51
  -4   4  -2   42.21    1.57
  -4   4  -2   41.62    1.46
  -6  -4  -2    1.06    0.18
  -6  -4  -2    1.23    0.30
  -6  -4  -2    1.18    0.23
   6  -4   2    0.87    0.18
   6  -4   2    0.90    0.20
  -6  -4  -2    1.08    0.23
  -6  -4  -2    1.43    0.32
   6  -4   2    1.55    0.20
  -6   4  -2    1.42    0.21
  -6   4  -2    1.10    0.28
  -6   4  -2    1.88    0.33
   6   4   2    0.74    0.19
  -6   4  -2    1.52    0.22
   6   4   2    1.05    0.35
   8  -4   2   98.17    3.02
   8  -4   2   79.43    3.28
  -8  -4  -2   98.19    3.15
  -8  -4  -2   94.56    3.37
  -8  -4  -2   96.84    3.17
  -8   4  -2   96.55    3.29
   8   4   2   90.24    3.25
  -8   4  -2   98.16    3.09
 -10  -4  -2    1.97    0.42
 -10  -4  -2    1.04    0.46
 -10  -4  -2    1.33    0.30
  10  -4   2    1.15    0.30
 -10   4  -2    1.86    0.40
 -10   4  -2    1.22    0.26
 -12  -4  -2   35.36    1.55
 -12  -4  -2   34.53    1.69
 -12  -4  -2   32.34    1.85
 -12   4  -2   38.41    1.50
 -12   4  -2   33.54    1.75
 -14  -4  -2   35.62    1.93
 -14  -4  -2   35.96    1.66
 -14  -4  -2   35.38    2.08
 -14   4  -2   36.42    1.93
 -14   4  -2   34.88    1.58
 -16  -4  -2    3.79    0.63
 -16  -4  -2    2.82    0.86
 -16  -4  -2    2.95    1.01
 -16   4  -2    2.42    0.77
 -16   4  -2    2.33    0.52
 -18  -4  -2    6.91    1.35
  18  -4   2    5.79    0.76
 -18  -4  -2    6.02    0.85
 -18  -4  -2    5.55    1.41
 -18   4  -2    5.27    0.76
 -18   4  -2    5.02    1.00
  18   4   2    7.10    1.01
 -20  -4  -2    5.52    0.73
 -20  -4  -2    6.34    1.67
 -20  -4  -2    6.32    1.81
 -20  -4  -2    3.94    0.85
  20   4   2    6.46    0.85
 -20   4  -2    4.62    0.87
 -20   4  -2    4.38    1.25
 -22  -4  -2    1.93    1.93
 -22  -4  -2    5.18    0.88
 -22  -4  -2    3.58    1.00
 -22  -4  -2    1.84    2.10
 -22   4  -2    0.71    1.48
  22   4   2    3.64    0.84
 -22   4  -2    4.04    1.08
 -21  -5   2    5.51    1.79
 -21  -5   2    6.77    1.82
 -21  -5   2    5.86    1.07
  21   5  -2    5.65    0.93
 -21   5   2    6.28    1.33
 -21   5   2    5.26    1.06
 -19  -5   2    1.49    1.23
 -19  -5   2    0.20    1.12
 -19  -5   2    1.10    0.62
 -19  -5   2    0.33    0.44
  19   5  -2    0.80    0.55
 -19   5   2    0.38    0.64
 -19   5   2    0.92    0.84
 -17  -5   2   17.48    0.95
 -17  -5   2   17.68    1.90
 -17  -5   2   15.55    1.28
 -17  -5   2   19.71    1.95
 -17   5   2   18.63    1.21
  17   5  -2   20.14    1.21
 -17   5   2   15.22    1.47
 -15  -5   2    3.76    0.59
 -15  -5   2    5.36    1.07
 -15  -5   2    5.90    0.99
 -15  -5   2    4.90    0.48
  15   5  -2    5.40    0.70
 -15   5   2    5.12    0.66
 -15   5   2    5.41    0.80
 -13  -5   2    8.49    1.13
 -13  -5   2    7.90    1.08
 -13  -5   2    8.68    0.75
 -13  -5   2    8.44    0.52
  13   5  -2    9.73    1.17
  13   5  -2    8.51    0.71
 -13   5   2    7.94    0.65
 -13   5   2    7.00    0.83
 -11  -5   2    0.41    0.25
 -11  -5   2    1.06    0.47
 -11  -5   2    0.04    0.40
 -11  -5   2    0.26    0.17
 -11   5   2    0.55    0.22
 -11   5   2   -0.10    0.25
  11   5  -2    0.34    0.42
  11   5  -2    0.44    0.25
  -9  -5   2   77.42    2.70
  -9  -5   2   76.82    2.92
  -9  -5   2   78.31    2.46
  -9  -5   2   69.00    3.17
   9   5  -2   79.12    2.90
   9   5  -2   77.76    2.67
  -9   5   2   76.02    2.65
  -9   5   2   76.74    2.48
  -7  -5   2    0.36    0.29
  -7  -5   2    0.24    0.10
  -7  -5   2   -0.01    0.26
  -7  -5   2    0.14    0.26
   7  -5  -2    0.14    0.15
  -7  -5   2    0.11    0.18
  -7   5   2    0.70    0.27
   7   5  -2    0.32    0.17
  -7   5   2    0.37    0.11
   7   5  -2    0.48    0.27
  -7   5   2    0.42    0.18
  -5  -5   2   82.11    2.92
  -5  -5   2   83.54    2.62
  -5  -5   2   83.26    2.95
  -5  -5   2   80.01    2.77
   5   5  -2   88.98    2.94
   5   5  -2   85.74    2.94
   5   5  -2   88.51    2.97
  -5   5   2   84.19    2.71
   5   5  -2   82.23    2.77
  -5   5   2   86.68    2.57
  -5   5   2   82.31    2.63
  -3  -5   2    9.88    0.49
  -3  -5   2    8.79    0.58
  -3  -5   2    8.57    0.39
   3  -5  -2    8.31    0.44
  -3  -5   2    7.86    0.46
  -3  -5   2    8.30    0.58
   3   5  -2    8.66    0.60
   3   5  -2    9.98    0.62
   3   5  -2    9.19    0.58
  -3   5   2    9.27    0.45
   3   5  -2    8.87    0.47
  -3   5   2    9.16    0.36
   3   5  -2    8.76    0.49
  -3   5   2    9.34    0.32
  -3   5   2    9.08    0.44
   3   5  -2    9.66    0.39
   1  -5  -2   33.92    1.20
  -1  -5   2   32.95    1.34
  -1  -5   2   33.83    1.19
  -1  -5   2   32.69    1.40
  -1  -5   2   35.94    1.21
   1  -5  -2   33.56    1.25
  -1  -5   2   33.80    1.17
  -1  -5   2   34.20    1.16
   1   5  -2   36.60    1.24
   1   5  -2   35.45    1.38
  -1   5   2   34.37    1.20
   1   5  -2   38.62    1.37
  -1   5   2   34.96    1.19
  -1   5   2   34.36    1.18
   1   5  -2   35.53    1.16
  -1   5   2   36.96    1.12
  -1   5   2   36.00    1.21
  -1   5   2   33.99    1.15
   1   5  -2   34.36    1.22
   1   5  -2   34.44    1.40
  -1  -5  -2    0.97    0.14
  -1  -5  -2    0.65    0.12
   1  -5   2    0.80    0.13
   1  -5   2    0.80    0.13
  -1  -5  -2    0.76    0.10
   1  -5   2    0.79    0.14
  -1  -5  -2    0.84    0.14
   1  -5   2    1.09    0.22
   1  -5   2    1.05    0.22
  -1  -5  -2    0.84    0.16
   1   5   2    0.93    0.14
   1   5   2    1.15    0.15
  -1   5  -2    0.95    0.16
  -1   5  -2    1.14    0.25
   1   5   2    0.68    0.13
   1   5   2    1.12    0.20
   1   5   2    0.80    0.13
  -1   5  -2    1.23    0.17
  -1   5  -2    0.75    0.15
  -1   5  -2    1.14    0.17
   3  -5   2   18.24    0.72
   3  -5   2   18.16    0.73
   3  -5   2   19.08    0.83
  -3  -5  -2   18.72    0.85
   3  -5   2   19.82    0.72
  -3  -5  -2   20.25    0.78
  -3  -5  -2   17.92    0.63
  -3  -5  -2   18.90    0.73
  -3   5  -2   18.10    0.75
   3   5   2   18.45    0.76
  -3   5  -2   19.22    0.96
   3   5   2   19.66    0.76
   3   5   2   18.06    0.75
  -3   5  -2   19.06    0.76
  -3   5  -2   17.57    0.84
  -3   5  -2   18.10    0.74
  -3   5  -2   19.03    0.73
  -5  -5  -2   15.29    0.83
   5  -5   2   16.05    0.63
   5  -5   2   14.31    0.68
   5  -5   2   15.30    0.65
  -5  -5  -2   14.46    0.65
  -5  -5  -2   15.05    0.69
  -5  -5  -2   15.37    0.76
  -5  -5  -2   14.80    0.64
   5   5   2   16.85    0.90
  -5   5  -2   14.59    0.66
   5   5   2   14.81    0.71
  -5   5  -2   16.14    0.77
  -5   5  -2   15.06    0.80
  -5   5  -2   14.60    0.66
  -7  -5  -2   35.35    1.35
  -7  -5  -2   33.35    1.27
   7  -5   2   37.24    1.26
   7  -5   2   33.91    1.29
   7  -5   2   32.09    1.36
  -7  -5  -2   33.09    1.35
  -7  -5  -2   36.04    1.56
   7   5   2   38.55    1.65
  -7   5  -2   36.49    1.49
   7   5   2   32.73    1.40
  -7   5  -2   36.15    1.50
  -7   5  -2   36.33    1.32
  -9  -5  -2   42.29    1.65
  -9  -5  -2   41.30    1.89
   9  -5   2   45.19    1.51
  -9  -5  -2   41.25    1.53
  -9  -5  -2   42.86    1.70
  -9   5  -2   39.83    1.62
  -9   5  -2   42.25    1.79
 -11  -5  -2   10.41    1.11
  11  -5   2    8.53    0.65
 -11  -5  -2    8.64    0.56
 -11  -5  -2    9.75    0.94
 -11  -5  -2    9.27    0.72
 -11   5  -2    9.21    0.83
 -11   5  -2    9.25    0.64
 -13  -5  -2   20.45    1.60
 -13  -5  -2   21.30    1.02
 -13  -5  -2   22.80    1.44
 -13  -5  -2   23.03    1.22
 -13   5  -2   22.46    1.13
 -13   5  -2   22.19    1.45
 -15  -5  -2    0.55    0.29
 -15  -5  -2    0.44    0.87
 -15  -5  -2    0.41    0.39
 -15  -5  -2   -0.02    0.65
 -15   5  -2    0.24    0.37
 -15   5  -2    1.36    0.59
 -17  -5  -2    9.78    1.51
  17  -5   2    7.41    0.72
 -17  -5  -2    6.48    0.74
 -17  -5  -2    5.99    0.91
 -17  -5  -2   10.62    1.65
  17   5   2    6.95    0.88
 -17   5  -2    6.61    0.88
 -17   5  -2    5.88    1.06
 -19  -5  -2   -0.23    1.24
 -19  -5  -2    1.37    0.67
 -19  -5  -2    1.87    0.64
 -19  -5  -2    3.36    1.44
 -19   5  -2    1.47    0.94
 -19   5  -2    1.02    0.66
  19   5   2    1.05    0.54
 -21  -5  -2   -0.32    1.74
 -21  -5  -2    2.34    0.71
 -21  -5  -2    1.84    1.96
 -21  -5  -2    1.53    0.85
 -21   5  -2    4.01    0.97
 -21   5  -2    1.34    1.22
  21   5   2    2.35    0.75
 -22  -6   2    2.50    2.01
 -22  -6   2    0.28    0.95
 -22  -6   2    3.95    2.07
  22   6  -2    1.32    0.85
 -22   6   2   -1.82    1.27
 -20  -6   2   -0.62    1.44
 -20  -6   2    0.55    1.45
 -20  -6   2   -0.03    0.73
  20   6  -2   -1.12    0.58
 -20   6   2    1.07    1.03
 -18  -6   2    2.62    1.31
 -18  -6   2    2.27    1.15
 -18  -6   2    3.24    0.70
 -18  -6   2    3.02    0.51
  18   6  -2    2.48    0.63
 -18   6   2    4.40    0.73
 -18   6   2    1.98    0.82
 -16  -6   2    5.20    0.57
 -16  -6   2    4.19    1.04
 -16  -6   2    3.71    0.67
 -16  -6   2    3.48    0.98
 -16   6   2    5.06    0.73
 -16   6   2    3.90    0.79
  16   6  -2    3.33    0.56
  16   6  -2    5.59    1.13
 -14  -6   2    0.16    0.34
 -14  -6   2    0.18    0.61
 -14  -6   2    0.03    0.24
 -14  -6   2    0.16    0.68
  14   6  -2    1.23    0.74
 -14   6   2    0.70    0.48
 -14   6   2   -0.16    0.30
  14   6  -2    0.55    0.36
 -12  -6   2    0.62    0.30
 -12  -6   2    1.20    0.55
 -12  -6   2   -0.41    0.49
 -12  -6   2    0.31    0.20
 -12   6   2    0.32    0.33
  12   6  -2    0.22    0.56
 -12   6   2    0.37    0.26
  12   6  -2    0.47    0.30
 -10  -6   2   70.30    2.29
 -10  -6   2   71.09    2.79
 -10  -6   2   68.59    2.54
 -10  -6   2   67.80    2.83
 -10   6   2   69.27    2.32
  10   6  -2   70.66    2.53
 -10   6   2   70.12    2.52
  -8  -6   2    1.90    0.49
  -8  -6   2    1.42    0.19
  -8  -6   2    1.05    0.26
  -8  -6   2    1.41    0.47
   8  -6  -2    1.14    0.25
  -8   6   2    1.29    0.25
   8   6  -2    1.45    0.29
   8   6  -2    1.99    0.47
  -8   6   2    1.53    0.22
  -6  -6   2    5.59    0.62
  -6  -6   2    5.48    0.53
  -6  -6   2    5.56    0.32
   6  -6  -2    5.69    0.40
  -6  -6   2    5.44    0.60
  -6  -6   2    5.34    0.59
  -6   6   2    5.46    0.28
   6   6  -2    5.47    0.61
   6   6  -2    4.93    0.43
   6   6  -2    5.13    0.71
  -6   6   2    5.47    0.48
  -4  -6   2    5.61    0.32
   4  -6  -2    5.11    0.38
  -4  -6   2    5.76    0.54
  -4  -6   2    5.41    0.41
   4  -6  -2    5.34    0.37
  -4  -6   2    5.68    0.53
   4   6  -2    5.90    0.42
  -4   6   2    5.78    0.25
   4   6  -2    5.76    0.58
  -4   6   2    5.69    0.31
   4   6  -2    5.45    0.57
   4   6  -2    5.90    0.34
  -2  -6   2   44.87    1.49
   2  -6  -2   42.69    1.48
  -2  -6   2   42.07    1.64
  -2  -6   2   42.20    1.43
   2  -6  -2   42.26    1.47
  -2  -6   2   39.98    1.46
  -2   6   2   43.58    1.36
   2   6  -2   40.42    1.51
  -2   6   2   42.03    1.43
   2   6  -2   44.15    1.42
  -2   6   2   45.43    1.53
   2   6  -2   40.91    1.63
   2   6  -2   44.17    1.51
   2   6  -2   46.41    1.73
  -2   6   2   42.29    1.42
  -2   6   2   42.15    1.48
  -2   6   2   42.47    1.40
  -2   6   2   42.24    1.47
   2   6  -2   42.34    1.65
   0  -6  -2   29.50    1.09
   0  -6   2   29.24    1.08
   0  -6   2   30.52    1.01
   0  -6   2   30.80    1.26
   0  -6   2   30.56    1.08
   0  -6   2   29.75    1.20
   0  -6  -2   29.80    1.09
   0  -6   2   29.88    1.09
   0   6   2   30.88    1.10
   0   6  -2   30.53    1.07
   0   6   2   31.05    1.15
   0   6   2   32.20    1.09
   0   6  -2   29.34    1.12
   0   6  -2   31.09    1.25
   0   6  -2   30.92    1.30
   0   6   2   31.61    1.05
   0   6  -2   29.20    1.23
   0   6   2   29.99    1.01
   0   6  -2   29.75    1.11
   2  -6   2   12.91    0.76
  -2  -6  -2   11.50    0.54
  -2  -6  -2   11.23    0.52
   2  -6   2   11.61    0.48
   2  -6   2   12.67    0.53
  -2  -6  -2   12.60    0.62
   2  -6   2   11.37    0.53
  -2  -6  -2   11.50    0.49
   2  -6   2   11.67    0.69
  -2  -6  -2   12.46    0.53
  -2   6  -2   10.58    0.54
  -2   6  -2   11.88    0.77
  -2   6  -2   12.28    0.50
   2   6   2   10.95    0.50
  -2   6  -2   11.56    0.65
  -2   6  -2   10.84    0.53
   2   6   2   11.84    0.67
   2   6   2   10.94    0.55
  -2   6  -2   11.25    0.55
   2   6   2   12.31    0.56
  -4  -6  -2   23.54    0.92
   4  -6   2   22.21    0.89
   4  -6   2   23.47    0.91
  -4  -6  -2   22.91    1.06
  -4  -6  -2   24.43    0.97
   4  -6   2   24.91    0.88
  -4  -6  -2   23.03    0.92
  -4  -6  -2   23.23    0.83
  -4   6  -2   24.40    0.94
  -4   6  -2   22.91    0.91
   4   6   2   23.84    1.13
   4   6   2   22.92    0.93
  -6  -6  -2   42.47    1.56
  -6  -6  -2   42.35    1.59
   6  -6   2   40.63    1.56
   6  -6   2   41.78    1.55
   6  -6   2   44.87    1.47
  -6  -6  -2   43.86    1.53
  -6  -6  -2   45.19    1.79
  -6  -6  -2   43.86    1.67
   6   6   2   42.77    1.62
   6   6   2   45.70    1.88
  -6   6  -2   43.53    1.55
  -6   6  -2   41.97    1.72
  -6   6  -2   45.43    1.66
   8  -6   2    4.23    0.38
  -8  -6  -2    4.43    0.46
  -8  -6  -2    4.22    0.36
  -8  -6  -2    3.69    0.56
   8  -6   2    4.17    0.39
  -8  -6  -2    4.03    0.48
  -8   6  -2    4.41    0.42
   8   6   2    3.35    0.64
  -8   6  -2    4.25    0.55
 -10  -6  -2   18.62    1.00
 -10  -6  -2   19.90    1.31
 -10  -6  -2   18.54    1.07
 -10  -6  -2   18.64    0.87
  10  -6   2   19.40    0.85
 -10   6  -2   19.76    1.14
 -10   6  -2   18.95    0.92
 -12  -6  -2    9.91    1.01
 -12  -6  -2    9.75    0.78
 -12  -6  -2   10.06    1.23
 -12  -6  -2   10.33    0.64
 -12   6  -2   10.95    0.73
 -12   6  -2    9.26    0.94
 -14  -6  -2    0.18    0.61
 -14  -6  -2    0.38    0.26
 -14  -6  -2    0.48    0.37
 -14  -6  -2   -0.26    0.69
 -14   6  -2   -0.42    0.44
 -14   6  -2    0.62    0.34
 -16  -6  -2   25.61    2.20
 -16  -6  -2   20.84    1.14
 -16  -6  -2   19.64    1.36
 -16  -6  -2   23.13    1.90
 -16   6  -2   23.06    1.31
  16   6   2   21.27    1.30
 -16   6  -2   20.95    1.70
 -18  -6  -2    0.78    0.57
 -18  -6  -2    0.75    1.11
 -18  -6  -2   -0.46    0.42
 -18  -6  -2   -0.48    1.24
  18   6   2    0.15    0.51
 -18   6  -2    0.00    0.54
 -18   6  -2    2.44    0.91
 -20  -6  -2   20.82    1.73
 -20  -6  -2   19.77    2.49
 -20  -6  -2   21.51    2.69
 -20  -6  -2   20.20    1.37
 -20   6  -2   17.84    1.65
  20   6   2   20.13    1.49
 -20   6  -2   21.70    2.24
 -22  -6  -2   10.09    1.46
 -22   6  -2   12.09    1.90
  22   6   2    9.91    1.49
 -22   6  -2   14.26    1.90
 -21  -7   2   17.92    2.47
 -21  -7   2   12.71    2.29
 -21  -7   2   11.46    1.69
  21   7  -2   15.74    1.60
 -21   7   2   14.04    2.14
 -19  -7   2    6.05    1.64
 -19  -7   2    3.38    0.83
 -19  -7   2    2.71    1.60
 -19   7   2    7.12    0.95
 -19   7   2    6.27    1.15
  19   7  -2    5.50    0.81
 -17  -7   2   62.38    2.77
 -17  -7   2   66.59    3.56
 -17  -7   2   67.22    3.36
 -17  -7   2   65.98    2.34
 -17   7   2   66.21    2.61
 -17   7   2   62.19    2.94
  17   7  -2   63.05    2.66
 -15  -7   2   30.83    2.18
 -15  -7   2   26.51    1.54
 -15  -7   2   28.84    1.22
 -15  -7   2   30.15    2.03
 -15   7   2   29.41    1.68
  15   7  -2   28.80    1.49
 -15   7   2   28.66    1.38
  15   7  -2   28.36    2.09
 -13  -7   2   12.67    0.69
 -13  -7   2   14.19    1.42
 -13  -7   2   10.68    0.93
 -13  -7   2   13.10    1.30
  13   7  -2   13.33    1.34
 -13   7   2   12.00    1.00
 -13   7   2   12.52    0.80
  13   7  -2   12.32    0.90
 -11  -7   2    9.19    1.06
 -11  -7   2    9.15    0.54
 -11  -7   2    9.42    1.14
 -11  -7   2   10.94    0.79
  11   7  -2   10.75    0.79
  11   7  -2    9.82    1.10
 -11   7   2    8.90    0.76
 -11   7   2    8.84    0.58
  -9  -7   2   81.57    3.07
  -9  -7   2   80.89    2.86
  -9  -7   2   75.71    3.43
   9  -7  -2   83.62    2.77
  -9  -7   2   79.36    2.62
   9   7  -2   81.10    2.85
  -9   7   2   79.65    2.60
   9   7  -2   81.34    3.13
  -9   7   2   80.54    2.77
   7  -7  -2  104.89    3.48
  -7  -7   2  106.84    3.54
  -7  -7   2  104.45    3.57
  -7  -7   2  106.66    3.43
  -7  -7   2  105.76    3.82
   7   7  -2  107.62    3.83
  -7   7   2  116.49    3.56
  -7   7   2  107.13    3.32
   7   7  -2  105.18    3.56
  -7   7   2  105.47    3.44
   5  -7  -2   42.80    1.62
  -5  -7   2   44.15    1.52
  -5  -7   2   43.35    1.84
  -5  -7   2   43.02    1.65
  -5  -7   2   44.13    1.81
  -5  -7   2   46.87    1.61
  -5   7   2   44.27    1.53
   5   7  -2   44.61    1.88
  -5   7   2   45.70    1.45
   5   7  -2   46.40    1.88
   5   7  -2   44.49    1.84
  -5   7   2   49.89    1.61
   5   7  -2   44.35    1.53
   3  -7  -2    0.43    0.17
  -3  -7   2    0.44    0.25
  -3  -7   2    0.40    0.15
   3  -7  -2    0.37    0.14
  -3  -7   2    0.32    0.12
   3   7  -2    1.05    0.35
   3   7  -2    0.34    0.17
  -3   7   2    0.64    0.17
  -3   7   2    0.44    0.24
   3   7  -2    0.59    0.26
   3   7  -2    0.20    0.29
   3   7  -2    0.65    0.18
  -1  -7   2  146.81    4.22
  -1  -7   2  134.63    4.32
  -1  -7   2  137.81    4.53
  -1  -7   2  124.40    4.44
   1  -7  -2  139.94    4.35
  -1  -7   2  144.78    4.35
   1   7  -2  134.88    4.54
   1   7  -2  137.02    4.30
  -1   7   2  142.62    4.26
  -1   7   2  144.35    4.27
   1   7  -2  134.61    4.37
  -1   7   2  135.27    4.35
  -1   7   2  145.74    4.39
  -1   7   2  140.97    4.20
   1   7  -2  140.99    4.56
   1   7  -2  141.66    4.58
  -1   7   2  140.62    4.37
   1  -7   2  190.96    5.96
   1  -7   2  202.30    5.91
   1  -7   2  189.23    5.79
  -1  -7  -2  188.43    5.94
   1  -7   2  191.63    6.14
  -1   7  -2  194.07    6.21
   1   7   2  198.56    5.93
   1   7   2  193.37    5.82
  -1   7  -2  189.25    6.11
  -1   7  -2  185.68    5.95
   1   7   2  203.74    5.90
   1   7   2  195.98    6.07
   3  -7   2    0.80    0.18
  -3  -7  -2    0.70    0.18
   3  -7   2    1.70    0.26
  -3  -7  -2    1.35    0.20
   3  -7   2    1.09    0.16
  -3  -7  -2    1.08    0.24
  -3   7  -2    1.07    0.27
  -3   7  -2    1.20    0.19
  -3   7  -2    0.84    0.18
   3   7   2    1.32    0.17
   3   7   2    1.10    0.33
   3   7   2    1.55    0.22
   5  -7   2    0.96    0.18
  -5  -7  -2    1.11    0.33
   5  -7   2    0.89    0.20
  -5  -7  -2    0.78    0.18
   5  -7   2    1.13    0.22
  -5  -7  -2    0.90    0.20
  -5  -7  -2    0.70    0.24
  -5  -7  -2    0.86    0.30
  -5   7  -2    0.94    0.26
  -5   7  -2    0.75    0.18
   5   7   2    1.38    0.40
   5   7   2    0.87    0.21
  -5   7  -2    0.94    0.27
  -7  -7  -2    0.30    0.15
   7  -7   2    0.95    0.21
   7  -7   2    0.17    0.15
  -7  -7  -2    0.07    0.35
  -7  -7  -2    0.48    0.20
  -7  -7  -2    0.58    0.24
  -7   7  -2    0.31    0.28
  -7   7  -2    0.53    0.21
  -7   7  -2    0.20    0.36
   7   7   2    0.48    0.46
  -9  -7  -2  283.83    8.78
  -9  -7  -2  286.72    8.66
  -9  -7  -2  282.56    8.74
   9  -7   2  280.72    8.68
   9  -7   2  288.81    8.51
  -9  -7  -2  280.52    9.06
  -9   7  -2  276.94    8.95
  -9   7  -2  274.57    8.69
 -11  -7  -2   30.08    1.24
 -11  -7  -2   26.79    2.00
 -11  -7  -2   28.62    1.49
  11  -7   2   28.36    1.12
 -11  -7  -2   29.18    1.39
 -11   7  -2   31.61    1.31
 -11   7  -2   29.54    1.54
 -13  -7  -2    5.49    0.73
 -13  -7  -2    5.87    0.54
 -13  -7  -2    5.99    1.00
 -13  -7  -2    6.44    1.01
 -13   7  -2    5.75    0.65
 -13   7  -2    5.65    0.88
 -15  -7  -2   15.90    1.50
 -15  -7  -2   15.03    0.91
 -15  -7  -2   13.33    1.83
 -15  -7  -2   12.68    1.08
 -15   7  -2   14.90    1.39
 -15   7  -2   13.92    1.04
  15   7   2   14.00    1.04
 -17  -7  -2   58.09    3.40
 -17  -7  -2   51.98    2.46
 -17  -7  -2   55.45    2.19
 -17  -7  -2   57.35    2.97
 -17   7  -2   54.88    2.37
 -17   7  -2   51.46    2.83
  17   7   2   54.96    2.36
 -19  -7  -2   13.56    1.43
 -19  -7  -2   11.22    1.11
 -19  -7  -2    9.73    2.03
  19   7   2   10.85    1.21
 -19   7  -2   11.44    1.36
 -19   7  -2   10.52    1.50
 -21  -7  -2   -1.09    0.85
 -21  -7  -2    1.87    0.77
 -21   7  -2    1.40    1.25
 -21   7  -2    0.75    0.94
  21   7   2   -0.87    0.71
 -20  -8   2   14.98    2.26
 -20  -8   2   13.98    1.66
 -20   8   2   16.01    2.00
  20   8  -2   12.06    1.46
 -18  -8   2   32.78    2.00
 -18  -8   2   35.50    2.95
 -18  -8   2   39.20    3.16
  18   8  -2   35.13    1.87
 -18   8   2   35.31    2.21
 -16  -8   2   45.82    2.88
 -16  -8   2   41.12    2.23
 -16  -8   2   46.48    1.77
 -16  -8   2   48.80    2.72
 -16   8   2   46.40    1.96
  16   8  -2   47.27    2.90
  16   8  -2   38.34    2.51
 -14  -8   2    7.18    0.88
 -14  -8   2    8.73    0.65
 -14  -8   2    8.74    1.39
 -14  -8   2   10.51    1.39
 -14   8   2    9.47    0.78
  14   8  -2    8.06    1.18
  14   8  -2    7.67    0.83
 -14   8   2    6.19    0.92
 -12  -8   2  108.52    3.41
 -12  -8   2  103.98    3.73
 -12  -8   2  102.30    3.97
 -12  -8   2  104.87    4.16
  12   8  -2  100.11    4.06
  12   8  -2  105.79    3.70
 -12   8   2  106.18    3.72
 -12   8   2  104.42    3.48
 -10  -8   2  144.96    5.05
  10  -8  -2  147.41    4.73
 -10  -8   2  150.45    4.86
 -10  -8   2  138.90    5.17
 -10  -8   2  148.10    4.56
  10   8  -2  140.35    5.14
 -10   8   2  143.10    4.55
  10   8  -2  147.88    4.83
 -10   8   2  141.80    4.75
  -8  -8   2   21.59    1.29
   8  -8  -2   24.13    1.05
  -8  -8   2   22.68    0.92
  -8  -8   2   22.93    1.11
  -8  -8   2   22.59    1.41
   8   8  -2   21.70    1.35
   8   8  -2   23.16    1.11
  -8   8   2   22.67    0.89
  -8   8   2   22.88    1.02
  -6  -8   2  111.90    3.54
  -6  -8   2  107.70    3.45
   6  -8  -2  108.69    3.54
  -6  -8   2  105.40    3.60
  -6  -8   2  108.53    3.85
   6   8  -2   98.82    4.22
   6   8  -2  106.79    3.62
  -6   8   2  119.52    3.54
  -6   8   2  107.34    3.37
   6   8  -2  112.09    3.89
  -6   8   2  106.96    3.48
  -4  -8   2   46.05    1.66
  -4  -8   2   51.50    1.66
  -4  -8   2   46.18    1.91
   4  -8  -2   48.64    1.75
  -4  -8   2   45.71    1.72
   4   8  -2   50.87    2.03
   4   8  -2   46.58    1.77
  -4   8   2   46.22    1.88
   4   8  -2   46.81    1.98
  -4   8   2   48.14    1.58
  -4   8   2   55.73    1.64
  -4   8   2   47.33    1.67
  -2  -8   2   79.20    2.61
  -2  -8   2   84.80    2.47
   2  -8  -2   79.09    2.64
   2  -8  -2   79.37    2.66
  -2  -8   2   79.28    2.64
  -2  -8   2   82.66    2.48
  -2  -8   2   76.10    2.82
   2   8  -2   70.60    2.75
   2   8  -2   84.57    2.90
   2   8  -2   76.71    2.88
  -2   8   2   82.08    2.53
  -2   8   2   81.34    2.66
  -2   8   2   82.29    2.54
  -2   8   2   83.40    2.73
   2   8  -2   76.00    2.85
  -2   8   2   80.41    2.63
   0  -8  -2   48.79    1.75
   0  -8  -2   50.21    1.75
   0  -8   2   47.74    1.92
   0  -8   2   49.02    1.74
   0   8  -2   51.44    1.95
   0   8   2   48.04    1.79
   0   8   2   51.19    1.84
   0   8  -2   49.66    1.76
   0   8   2   49.69    1.68
   0   8   2   51.11    1.71
   0   8  -2   50.34    1.95
   0   8   2   53.22    1.77
   2  -8   2    0.85    0.19
  -2  -8  -2    0.49    0.17
  -2  -8  -2    0.76    0.20
   2  -8   2    0.50    0.16
  -2  -8  -2    0.48    0.16
  -2   8  -2    0.17    0.22
  -2   8  -2    0.58    0.17
   2   8   2    0.34    0.18
   2   8   2    0.85    0.28
   4  -8   2  109.43    3.34
   4  -8   2  102.77    3.44
  -4  -8  -2  104.17    3.41
  -4  -8  -2  104.16    3.29
  -4  -8  -2  110.27    3.62
  -4  -8  -2  103.75    3.44
  -4  -8  -2  112.38    3.42
  -4  -8  -2  104.30    3.44
  -4   8  -2  103.55    3.44
  -4   8  -2  103.64    3.61
   4   8   2  116.60    3.76
  -4   8  -2  106.14    3.36
  -6  -8  -2  246.00    7.71
  -6  -8  -2  246.41    7.35
  -6  -8  -2  237.37    7.44
  -6  -8  -2  243.54    7.50
  -6  -8  -2  238.06    7.47
   6  -8   2  244.25    7.30
   6  -8   2  233.09    7.45
  -6   8  -2  253.54    7.48
  -6   8  -2  229.58    7.63
  -6   8  -2  228.92    7.43
   6   8   2  256.90    7.87
   8  -8   2   32.81    1.32
  -8  -8  -2   32.51    1.67
  -8  -8  -2   33.04    1.38
  -8  -8  -2   33.51    1.33
  -8  -8  -2   33.22    1.30
   8  -8   2   33.85    1.17
  -8   8  -2   31.95    1.32
  -8   8  -2   33.08    1.53
   8   8   2   31.40    1.92
  10  -8   2   55.51    1.80
 -10  -8  -2   52.60    1.97
 -10  -8  -2   54.39    2.10
  10  -8   2   55.89    2.03
 -10  -8  -2   53.85    2.11
 -10  -8  -2   55.79    2.52
 -10   8  -2   54.55    2.03
 -10   8  -2   53.09    2.28
 -12  -8  -2  109.79    4.26
 -12  -8  -2  107.26    3.78
 -12  -8  -2  105.78    3.58
 -12  -8  -2  106.88    3.82
 -12   8  -2  106.29    3.66
 -12   8  -2  105.69    3.98
 -14  -8  -2   25.78    1.20
 -14  -8  -2   23.96    1.66
 -14  -8  -2   21.03    2.08
 -14  -8  -2   26.55    1.43
 -14   8  -2   24.47    1.30
  14   8   2   23.77    1.33
 -14   8  -2   22.78    1.60
 -16  -8  -2    1.02    0.43
 -16  -8  -2    1.28    0.57
 -16  -8  -2    0.09    0.95
 -16  -8  -2    1.68    1.25
 -16   8  -2    1.11    0.74
 -16   8  -2    0.74    0.49
  16   8   2    0.64    0.45
 -18  -8  -2    4.40    2.24
 -18  -8  -2    3.90    0.81
 -18  -8  -2    4.33    0.67
  18   8   2    2.41    1.42
 -18   8  -2    3.72    1.01
  18   8   2    3.50    0.72
 -18   8  -2    3.17    1.12
 -20  -8  -2   46.50    2.17
 -20  -8  -2   45.77    2.49
  20   8   2   45.39    2.29
 -20   8  -2   39.45    2.88
 -20   8  -2   45.64    2.42
 -19  -9   2    6.76    1.08
 -19  -9   2   10.94    2.30
 -19  -9   2    8.22    1.86
  19   9  -2    9.00    1.30
 -19   9   2    6.79    1.26
 -17  -9   2   71.69    4.09
 -17  -9   2   68.86    3.01
 -17  -9   2   68.64    3.62
  17   9  -2   67.82    2.88
 -17   9   2   74.98    3.19
 -15  -9   2  132.72    4.75
 -15  -9   2  133.72    5.47
 -15  -9   2  137.26    5.18
  15   9  -2  133.76    5.33
 -15   9   2  139.06    4.53
 -15   9   2  127.90    4.90
 -13  -9   2   25.08    1.10
 -13  -9   2   23.12    1.38
 -13  -9   2   25.06    2.10
 -13  -9   2   25.68    1.79
 -13   9   2   24.43    1.19
  13   9  -2   24.04    1.35
  13   9  -2   24.74    1.91
 -13   9   2   23.64    1.40
 -11  -9   2    4.57    0.68
 -11  -9   2    7.26    1.06
 -11  -9   2    5.68    0.98
 -11  -9   2    6.80    0.52
  11   9  -2    6.05    0.70
  11   9  -2    5.45    0.87
 -11   9   2    6.73    0.70
 -11   9   2    5.87    0.54
  -9  -9   2   42.20    1.57
  -9  -9   2   44.23    2.02
   9  -9  -2   43.66    1.73
  -9  -9   2   44.71    1.82
  -9   9   2   43.65    1.55
   9   9  -2   41.95    1.79
  -9   9   2   44.05    1.73
   9   9  -2   43.79    2.13
  -7  -9   2   98.97    3.32
  -7  -9   2   99.92    3.21
  -7  -9   2  100.46    3.58
  -7  -9   2   99.81    3.40
   7  -9  -2  100.52    3.33
  -7  -9   2  100.31    3.68
  -7   9   2   97.75    3.27
   7   9  -2   96.17    3.40
  -7   9   2   96.22    3.13
  -7   9   2  105.66    3.31
   7   9  -2   94.79    3.67
  -5  -9   2  337.27   10.30
  -5  -9   2  336.74   10.39
  -5  -9   2  354.09   10.27
  -5  -9   2  319.15   10.62
  -5  -9   2  348.13   10.69
   5  -9  -2  338.26   10.42
   5   9  -2  337.00   10.73
  -5   9   2  374.61   10.25
  -5   9   2  332.44   10.20
  -5   9   2  330.53   10.31
   5   9  -2  331.65   10.44
   5   9  -2  335.77   10.72
  -3  -9   2   16.77    0.64
  -3  -9   2   14.34    1.11
  -3  -9   2   16.12    0.75
  -3  -9   2   16.30    0.79
   3  -9  -2   16.98    0.80
  -3  -9   2   17.19    0.65
   3   9  -2   15.40    0.80
   3   9  -2   16.06    1.09
  -3   9   2   16.40    0.67
  -3   9   2   16.50    0.77
  -3   9   2   16.98    0.72
  -3   9   2   15.84    0.79
  -3   9   2   16.61    1.00
   3   9  -2   17.23    1.02
   1  -9  -2  215.61    6.73
  -1  -9   2  217.87    6.72
   1  -9  -2  207.94    6.73
  -1  -9   2  221.12    6.74
  -1   9   2  227.70    6.80
  -1   9   2  216.01    6.76
  -1   9   2  217.84    6.62
   1   9  -2  216.66    6.76
   1   9  -2  211.26    6.95
   1   9  -2  217.63    6.98
  -1   9   2  219.54    6.80
  -1  -9  -2  152.03    4.92
   1  -9   2  156.29    4.92
  -1  -9  -2  156.49    4.92
   1  -9   2  149.87    5.12
  -1   9  -2  156.27    5.13
   1   9   2  150.93    5.01
   1   9   2  154.47    4.86
  -1   9  -2  163.53    5.15
   1   9   2  161.35    4.89
   1   9   2  157.50    5.08
  -3  -9  -2   69.37    2.34
   3  -9   2   69.19    2.34
   3  -9   2   69.39    2.23
  -3  -9  -2   71.52    2.19
  -3  -9  -2   67.18    2.33
   3   9   2   61.97    2.37
  -3   9  -2   58.18    2.50
   3   9   2   75.26    2.25
  -3   9  -2   67.28    2.51
   3   9   2   72.50    2.62
   5  -9   2    0.79    0.21
  -5  -9  -2    0.88    0.23
  -5  -9  -2    0.44    0.19
  -5  -9  -2    0.60    0.19
  -5  -9  -2    1.03    0.41
   5  -9   2    0.81    0.22
  -5  -9  -2    1.14    0.36
  -5  -9  -2    0.43    0.19
   5   9   2    0.18    0.47
  -5   9  -2    1.19    0.25
  -5   9  -2    0.76    0.28
  -5   9  -2    0.54    0.25
   7  -9   2   59.58    2.12
  -7  -9  -2   59.73    2.01
  -7  -9  -2   59.28    2.14
   7  -9   2   59.85    1.91
  -7  -9  -2   61.22    2.44
  -7  -9  -2   59.10    2.12
  -7  -9  -2   57.09    2.09
   7   9   2   61.79    2.63
  -7   9  -2   57.08    2.31
  -7   9  -2   57.02    2.10
  -7   9  -2   58.00    2.15
   9  -9   2   96.19    3.21
  -9  -9  -2   95.79    3.16
  -9  -9  -2   92.68    3.25
  -9  -9  -2   95.55    3.61
  -9  -9  -2   96.88    3.18
  -9   9  -2   91.49    3.18
  -9   9  -2   88.71    3.43
 -11  -9  -2  104.42    3.64
 -11  -9  -2  103.33    3.48
 -11  -9  -2  103.65    3.59
  11  -9   2  107.89    3.56
 -11  -9  -2  102.48    4.09
 -11   9  -2  102.29    3.53
 -11   9  -2  101.56    3.83
  11   9   2  100.14    3.64
 -13  -9  -2    8.03    0.70
 -13  -9  -2    8.42    1.22
 -13  -9  -2    8.64    1.36
 -13  -9  -2    8.77    0.91
 -13   9  -2    7.82    0.79
 -13   9  -2    8.84    1.08
  13   9   2    9.61    0.83
 -15  -9  -2  102.08    4.47
 -15  -9  -2   91.88    3.30
 -15  -9  -2   97.47    4.37
  15   9   2   96.00    4.09
  15   9   2   86.69    3.49
 -15   9  -2   97.38    3.48
 -15   9  -2   89.19    3.86
 -17  -9  -2   83.76    3.18
 -17  -9  -2   84.03    3.45
 -17   9  -2   89.22    3.38
 -17   9  -2   85.19    3.82
  17   9   2   85.30    4.14
  17   9   2   86.42    3.37
 -19  -9  -2   10.55    1.24
 -19  -9  -2   15.46    1.55
 -19   9  -2   13.69    2.07
  19   9   2   13.52    1.38
 -19   9  -2   12.81    1.53
 -20 -10   2   74.76    3.56
 -20  10   2   78.42    3.75
  20  10  -2   79.31    3.36
 -18 -10   2   34.76    2.16
  18  10  -2   36.88    2.00
 -18  10   2   33.70    2.28
 -16 -10   2   11.82    1.92
 -16 -10   2    9.44    1.20
 -16 -10   2   12.20    0.86
 -16 -10   2   11.13    1.58
 -16  10   2    8.70    1.09
  16  10  -2    9.66    1.61
  16  10  -2   11.45    1.11
 -14 -10   2   36.59    2.58
 -14 -10   2   38.19    2.36
 -14 -10   2   37.24    2.77
 -14 -10   2   39.45    1.60
  14  10  -2   40.05    2.58
 -14  10   2   41.68    1.71
 -14  10   2   37.68    1.96
 -12 -10   2  147.40    5.10
 -12 -10   2  149.20    4.77
 -12 -10   2  144.04    5.31
 -12 -10   2  152.49    5.63
 -12  10   2  156.52    4.83
 -12  10   2  145.18    5.05
  12  10  -2  148.74    5.10
  12  10  -2  149.72    5.57
  10 -10  -2   72.64    2.68
 -10 -10   2   73.13    2.78
 -10 -10   2   71.95    2.52
 -10 -10   2   73.40    3.22
 -10 -10   2   76.21    3.03
 -10  10   2   74.05    2.50
  10  10  -2   75.09    2.80
 -10  10   2   72.02    2.68
  10  10  -2   74.68    3.17
  -8 -10   2   11.49    1.06
  -8 -10   2   12.60    0.67
   8 -10  -2   12.17    0.77
  -8 -10   2   12.24    0.85
  -8 -10   2   10.38    1.20
   8  10  -2   10.71    1.09
   8  10  -2   13.10    0.85
  -8  10   2   12.72    0.63
  -8  10   2   11.90    0.74
  -6 -10   2   10.96    0.96
   6 -10  -2   10.22    0.68
  -6 -10   2   10.40    0.76
  -6 -10   2   10.32    0.69
  -6 -10   2   10.78    0.61
  -6  10   2   11.54    0.65
   6  10  -2   10.69    0.72
   6  10  -2   10.61    0.97
  -6  10   2    8.94    0.61
  -6  10   2   10.67    0.55
  -4 -10   2  277.68    8.77
  -4 -10   2  285.87    8.85
  -4 -10   2  290.45    9.05
  -4 -10   2  303.96    8.61
  -4 -10   2  292.80    8.61
   4 -10  -2  281.11    8.84
   4 -10  -2  279.35    8.86
   4  10  -2  282.13    9.18
  -4  10   2  279.57    8.80
  -4  10   2  287.48    8.83
   4  10  -2  292.92    9.23
   4  10  -2  281.37    8.90
  -4  10   2  289.60    8.67
  -2 -10   2  182.09    5.94
  -2 -10   2  183.95    5.74
  -2 -10   2  181.48    5.77
   2 -10  -2  187.96    5.80
   2 -10  -2  182.76    5.76
   2  10  -2  179.15    6.04
   2  10  -2  190.28    6.10
  -2  10   2  183.29    5.88
  -2  10   2  179.85    5.78
  -2  10   2  181.41    5.63
   2  10  -2  181.41    5.80
  -2  10   2  181.25    5.81
   0 -10   2    8.88    0.77
   0 -10  -2    9.19    0.59
   0 -10  -2    9.14    0.59
   0 -10   2    8.05    0.55
   0 -10   2    8.71    0.57
   0  10   2    8.50    0.64
   0  10   2    9.09    0.52
   0  10  -2    8.32    0.74
   0  10  -2    8.94    0.59
   0  10   2    8.49    0.70
   0  10   2    8.55    0.70
   0  10  -2    8.16    0.85
  -2 -10  -2   17.49    0.85
  -2 -10  -2   17.67    0.86
   2 -10   2   16.44    0.84
   2  10   2   17.94    0.98
   2  10   2   17.86    0.84
   2  10   2   20.58    1.11
  -2  10  -2   17.51    1.08
  -2  10  -2   16.37    0.84
  -2  10  -2   17.08    1.02
  -4 -10  -2  293.75    9.31
   4 -10   2  298.30    9.32
  -4 -10  -2  322.37    9.14
  -4 -10  -2  303.79    9.32
   4  10   2  294.80    9.55
   4  10   2  322.63    9.70
  -4  10  -2  298.04    9.31
  -4  10  -2  297.40    9.53
   4  10   2  298.19    9.33
  -6 -10  -2  165.35    5.37
  -6 -10  -2  170.40    5.34
  -6 -10  -2  166.54    5.14
  -6 -10  -2  171.57    5.62
  -6 -10  -2  169.34    5.35
   6 -10   2  165.36    5.37
  -6 -10  -2  168.10    5.33
   6  10   2  162.75    5.66
  -6  10  -2  175.94    5.25
  -6  10  -2  167.32    5.35
   6  10   2  163.85    5.41
  -6  10  -2  163.90    5.58
   6  10   2  176.38    5.85
  -8 -10  -2    2.51    0.39
  -8 -10  -2    2.02    0.33
  -8 -10  -2    2.53    0.42
  -8 -10  -2    3.31    0.75
   8 -10   2    2.32    0.37
  -8 -10  -2    2.30    0.38
  -8  10  -2    2.26    0.49
   8  10   2    2.34    0.40
  -8  10  -2    2.46    0.39
 -10 -10  -2   18.37    0.98
  10 -10   2   20.79    1.05
 -10 -10  -2   19.65    1.11
 -10 -10  -2   19.39    1.12
 -10 -10  -2   19.84    1.68
 -10  10  -2   19.69    1.04
 -10  10  -2   18.24    1.24
  10  10   2   19.17    1.10
 -12 -10  -2   70.11    2.74
 -12 -10  -2   71.71    2.59
 -12 -10  -2   73.54    2.75
 -12 -10  -2   72.54    4.69
  12  10   2   68.79    2.74
 -12  10  -2   70.55    2.98
  12  10   2   69.26    3.16
 -12  10  -2   72.57    2.66
 -14 -10  -2  154.07    5.34
 -14 -10  -2  150.11    4.96
 -14  10  -2  142.02    5.66
 -14  10  -2  154.93    5.08
  14  10   2  146.20    5.65
 -16 -10  -2   12.35    1.27
 -16 -10  -2   12.67    1.49
 -16  10  -2   13.41    1.60
  16  10   2   12.67    1.74
 -16  10  -2   12.15    1.21
  16  10   2   13.34    1.18
 -18 -10  -2    9.66    1.00
 -18 -10  -2   10.52    1.44
 -18  10  -2    9.33    1.48
  18  10   2   11.53    2.30
 -18  10  -2    9.11    1.13
  18  10   2    9.82    1.27
 -19 -11   2   -1.28    0.87
  19  11  -2    0.40    0.79
 -19  11   2    1.61    1.03
 -17 -11   2   54.69    2.78
  17  11  -2   63.61    2.78
 -17  11   2   63.68    2.95
 -15 -11   2  119.07    6.03
 -15 -11   2  112.64    4.68
 -15 -11   2  109.49    4.24
 -15 -11   2  121.09    3.84
  15  11  -2  119.24    4.98
 -15  11   2  107.37    4.24
  15  11  -2  108.86    4.18
 -13 -11   2   31.27    1.37
 -13 -11   2   29.57    1.89
 -13 -11   2   34.81    2.21
 -13 -11   2   26.86    2.46
 -13  11   2   30.92    1.68
  13  11  -2   33.00    2.24
 -11 -11   2    3.42    1.11
  11 -11  -2    3.56    0.54
 -11 -11   2    3.98    0.54
 -11 -11   2    3.63    0.61
 -11 -11   2    3.52    0.82
  11  11  -2    2.16    0.51
  11  11  -2    3.91    0.93
 -11  11   2    3.39    0.67
  -9 -11   2   32.05    1.31
  -9 -11   2   31.64    1.51
  -9 -11   2   32.11    2.19
  -9 -11   2   31.89    1.75
   9 -11  -2   29.88    1.41
  -9  11   2   30.25    1.24
  -9  11   2   30.48    1.42
   9  11  -2   30.02    1.86
   9  11  -2   31.50    1.52
   7 -11  -2  202.50    6.31
  -7 -11   2  204.40    6.55
  -7 -11   2  200.60    6.19
  -7 -11   2  195.55    6.31
   7  11  -2  186.69    6.71
   7  11  -2  192.29    6.38
  -7  11   2  196.63    6.08
  -7  11   2  196.67    6.25
  -5 -11   2  122.15    4.03
  -5 -11   2  123.71    4.12
  -5 -11   2  123.64    4.31
  -5 -11   2  126.06    3.85
   5 -11  -2  123.25    4.11
  -5 -11   2  132.70    3.86
  -5  11   2  123.15    4.09
   5  11  -2  121.06    4.17
  -5  11   2  122.78    4.07
   5  11  -2  124.84    4.50
  -5  11   2  121.41    3.92
   3 -11  -2    0.74    0.28
  -3 -11   2    1.22    0.43
   3 -11  -2    1.16    0.29
  -3 -11   2    0.87    0.24
  -3 -11   2    0.42    0.21
  -3  11   2    1.03    0.24
  -3  11   2    1.30    0.36
   3  11  -2    0.43    0.37
   3  11  -2    0.40    0.24
   3  11  -2    1.36    0.64
  -3  11   2    0.70    0.28
   1 -11  -2  117.71    3.83
  -1 -11   2  115.86    3.82
  -1 -11   2  115.55    3.83
   1 -11  -2  114.71    3.85
  -1 -11   2  114.87    4.01
  -1  11   2  114.83    3.90
  -1  11   2  119.94    3.97
   1  11  -2  115.55    4.12
   1  11  -2  116.08    4.15
  -1  11   2  117.43    3.72
   1  11  -2  113.05    3.84
  -1  11   2  115.70    3.91
  -1 -11  -2  200.94    6.44
  -1 -11  -2  204.19    6.47
   1 -11   2  204.49    6.46
   1  11   2  206.61    6.42
   1  11   2  202.21    6.60
  -1  11  -2  203.29    6.47
   1  11   2  214.04    6.70
   1  11   2  203.12    6.40
  -1  11  -2  197.97    6.70
  -1  11  -2  213.89    6.76
  -3 -11  -2  106.39    3.61
  -3 -11  -2  106.28    3.60
   3 -11   2  106.15    3.61
   3  11   2  110.38    3.94
  -3  11  -2  103.86    3.82
  -3  11  -2  107.98    3.61
   3  11   2  106.25    3.85
   3  11   2  113.60    3.49
   3  11   2  109.27    3.59
  -3  11  -2  113.91    3.90
  -5 -11  -2    6.00    0.56
  -5 -11  -2    5.51    0.52
  -5 -11  -2    5.80    0.58
   5 -11   2    5.47    0.53
  -5  11  -2    5.51    0.54
   5  11   2    5.82    0.55
   5  11   2    4.44    0.80
  -5  11  -2    5.41    0.67
   5  11   2    6.00    0.76
  -7 -11  -2   53.24    1.97
  -7 -11  -2   53.37    1.97
  -7 -11  -2   49.81    2.34
   7 -11   2   52.15    1.99
  -7 -11  -2   52.89    2.00
   7  11   2   51.20    2.30
  -7  11  -2   51.47    1.97
   7  11   2   50.47    2.02
  -7  11  -2   52.07    2.20
  -9 -11  -2  102.89    3.49
  -9 -11  -2  102.99    3.49
   9 -11   2   99.50    3.46
  -9 -11  -2  101.05    3.28
  -9 -11  -2  102.29    3.93
  -9 -11  -2  100.48    3.42
   9  11   2   98.38    3.53
  -9  11  -2   99.88    3.43
  -9  11  -2   96.50    3.72
   9  11   2   96.14    3.85
 -11 -11  -2  119.53    4.04
 -11 -11  -2  122.37    4.12
  11 -11   2  120.62    4.11
 -11 -11  -2  123.09    4.17
  11  11   2  119.15    4.20
  11  11   2  113.72    4.57
 -11  11  -2  120.89    4.45
 -11  11  -2  118.81    4.08
 -13 -11  -2    3.72    0.67
 -13 -11  -2    3.81    0.54
  13  11   2    5.66    1.06
 -13  11  -2    2.73    0.75
 -13  11  -2    4.09    0.61
 -15 -11  -2   75.76    3.14
 -15 -11  -2   73.03    3.57
  15  11   2   76.93    3.10
 -15  11  -2   84.19    3.07
 -15  11  -2   76.62    3.45
 -17 -11  -2   72.48    3.20
 -17 -11  -2   72.11    2.87
  17  11   2   72.08    4.11
 -17  11  -2   76.07    3.60
 -17  11  -2   80.66    3.13
  17  11   2   70.76    3.10
 -19 -11  -2   35.06    2.15
 -19 -11  -2   27.94    2.21
  19  11   2   31.02    2.07
 -19  11  -2   30.69    2.65
 -18 -12   2   31.96    2.24
  18  12  -2   30.87    2.01
 -18  12   2   31.61    2.22
 -16 -12   2   25.08    1.86
  16  12  -2   23.55    3.01
  16  12  -2   26.78    1.76
 -16  12   2   26.58    1.92
 -14 -12   2    0.95    0.61
 -14 -12   2   -2.00    1.18
 -14 -12   2   -0.16    0.45
 -14  12   2    0.00    0.62
  14  12  -2   -0.13    0.51
  14  12  -2    0.78    1.15
 -12 -12   2  148.92    4.65
 -12 -12   2  148.17    5.23
 -12 -12   2  126.56    5.33
  12  12  -2  145.16    5.56
 -12  12   2  140.60    4.90
  12  12  -2  138.02    5.13
 -10 -12   2  162.94    5.24
 -10 -12   2  165.91    5.69
 -10 -12   2  162.96    5.43
  10 -12  -2  163.22    5.42
 -10 -12   2  158.11    5.99
 -10 -12   2  162.25    5.48
  10  12  -2  164.07    6.00
  10  12  -2  162.42    5.53
 -10  12   2  163.08    5.42
  -8 -12   2    2.45    0.40
  -8 -12   2    1.95    0.40
   8 -12  -2    2.74    0.43
  -8 -12   2    2.03    0.67
   8  12  -2    1.70    0.64
   8  12  -2    1.84    0.44
  -8  12   2    2.94    0.40
  -8  12   2    2.69    0.48
  -6 -12   2   48.48    2.15
  -6 -12   2   49.62    1.93
   6 -12  -2   51.75    1.94
  -6 -12   2   47.49    1.83
  -6  12   2   45.99    1.91
  -6  12   2   47.79    1.74
   6  12  -2   46.93    2.31
   6  12  -2   48.61    1.99
  -6  12   2   46.76    1.87
  -4 -12   2   48.04    2.10
   4 -12  -2   52.00    1.95
  -4 -12   2   48.54    1.93
   4 -12  -2   50.57    1.99
  -4 -12   2   51.29    1.89
  -4  12   2   50.96    2.00
   4  12  -2   47.89    2.25
  -4  12   2   48.88    1.93
   4  12  -2   47.72    1.96
  -4  12   2   49.68    1.77
  -2 -12   2   72.32    2.58
   2 -12  -2   72.53    2.63
  -2 -12   2   70.47    2.58
  -2 -12   2   72.46    2.78
   2 -12  -2   71.60    2.59
   2  12  -2   74.50    2.94
  -2  12   2   76.74    2.76
   2  12  -2   71.64    2.63
  -2  12   2   70.76    2.64
  -2  12   2   72.95    2.47
   0 -12  -2   65.65    2.44
   0 -12   2   64.53    2.44
   0 -12   2   65.99    2.43
   0 -12  -2   69.13    2.44
   0  12  -2   70.03    3.34
   0  12   2   67.90    2.35
   0  12   2   67.38    2.56
   0  12  -2   65.27    2.69
   0  12  -2   70.33    2.47
   0  12   2   67.28    2.64
  -2 -12  -2    2.27    0.37
   2 -12   2    3.26    0.44
  -2 -12  -2    3.27    0.45
  -2  12  -2    2.70    0.53
  -2  12  -2    3.03    0.42
   2  12   2    2.51    0.38
  -2  12  -2    2.48    0.77
   2  12   2    2.38    0.49
  -4 -12  -2   90.44    3.11
  -4 -12  -2   90.12    3.11
   4 -12   2   92.31    3.13
  -4  12  -2   86.16    3.32
   4  12   2   86.80    3.34
  -4  12  -2   89.33    3.09
   4  12   2   91.32    3.12
  -6 -12  -2  253.39    7.98
  -6 -12  -2  261.61    7.97
   6 -12   2  256.32    7.98
   6  12   2  249.66    7.99
  -6  12  -2  251.93    7.94
   6  12   2  254.86    8.34
  -6  12  -2  245.70    8.21
  -8 -12  -2   12.63    0.82
  -8 -12  -2   11.86    0.86
  -8 -12  -2   12.93    0.88
   8 -12   2   12.40    0.86
   8  12   2   12.92    1.19
   8  12   2   11.40    0.87
  -8  12  -2   12.39    0.84
  -8  12  -2   10.36    1.03
 -10 -12  -2   28.41    1.44
  10 -12   2   29.47    1.43
 -10 -12  -2   28.76    1.36
 -10 -12  -2   30.13    1.45
 -10  12  -2   26.58    1.65
 -10  12  -2   30.75    1.43
  10  12   2   29.61    1.89
  10  12   2   27.93    1.47
 -12 -12  -2   85.12    3.62
  12 -12   2   77.51    3.77
 -12 -12  -2   89.87    3.12
 -12 -12  -2   92.67    3.29
 -12  12  -2   91.62    3.22
  12  12   2   81.40    3.72
 -12  12  -2   84.27    3.51
 -14 -12  -2   26.08    1.64
 -14 -12  -2   26.21    1.45
 -14 -12  -2   28.22    1.58
 -14  12  -2   29.42    2.27
 -14  12  -2   26.83    1.90
  14  12   2   26.22    2.34
  14  12   2   26.24    1.60
 -16 -12  -2   18.10    1.32
 -16 -12  -2   17.07    1.58
 -16  12  -2   17.34    1.92
  16  12   2   26.36    2.70
  16  12   2   18.72    1.52
 -18 -12  -2    3.52    0.82
 -18 -12  -2    3.95    1.05
  18  12   2    4.58    0.97
 -18  12  -2    4.16    1.32
 -17 -13   2   19.41    1.88
 -17  13   2   22.09    1.91
  17  13  -2   21.56    1.77
 -15 -13   2   25.78    1.64
 -15 -13   2   26.15    1.87
 -15  13   2   28.81    1.90
  15  13  -2   30.01    1.82
  15  13  -2   27.66    3.03
 -13 -13   2   31.17    1.82
 -13 -13   2   31.51    1.71
 -13 -13   2   35.14    1.56
 -13  13   2   32.72    1.84
  13  13  -2   30.79    1.79
 -11 -13   2    1.79    0.45
 -11 -13   2    1.22    0.46
  11 -13  -2    2.03    0.51
 -11 -13   2    2.35    0.99
  11  13  -2    1.63    0.91
  11  13  -2    0.54    0.49
  -9 -13   2   58.55    2.39
  -9 -13   2   62.70    2.26
   9 -13  -2   58.73    2.39
  -9 -13   2   60.64    2.68
   9  13  -2   57.42    2.93
  -9  13   2   59.83    2.37
   9  13  -2   61.19    2.50
  -7 -13   2  107.57    3.75
  -7 -13   2  107.59    3.64
   7 -13  -2  111.25    3.76
  -7 -13   2  108.68    3.95
  -7  13   2  105.19    3.99
   7  13  -2  105.17    4.23
   7  13  -2  104.75    3.83
  -5 -13   2    4.28    0.58
  -5 -13   2    4.90    0.62
  -5 -13   2    5.44    0.76
   5 -13  -2    5.01    0.61
  -5  13   2    4.28    0.63
   5  13  -2    4.49    0.74
   5  13  -2    3.94    0.56
  -5  13   2    4.72    0.62
  -3 -13   2    5.36    0.59
  -3 -13   2    4.81    0.73
   3 -13  -2    6.08    0.63
  -3 -13   2    5.34    0.60
   3 -13  -2    4.65    0.64
   3  13  -2    5.16    0.79
  -3  13   2    4.98    0.66
  -3  13   2    6.13    0.58
   3  13  -2    6.72    0.66
  -3  13   2    5.27    0.70
   1 -13  -2   40.02    1.66
  -1 -13   2   38.87    1.65
   1 -13  -2   40.85    1.70
  -1 -13   2   38.71    1.67
   1  13  -2   38.51    1.95
   1  13  -2   41.66    1.71
  -1  13   2   41.93    1.58
  -1  13   2   38.21    1.74
  -1 -13  -2  116.95    4.04
   1 -13   2  120.01    4.03
  -1 -13  -2  118.28    4.02
   1  13   2  123.43    3.96
   1  13   2  119.05    4.22
  -1  13  -2  116.06    4.31
  -1  13  -2  121.47    4.04
  -3 -13  -2   25.34    1.22
  -3 -13  -2   24.92    1.21
   3 -13   2   24.84    1.21
   3  13   2   25.09    1.19
   3  13   2   23.11    1.38
  -3  13  -2   23.89    1.42
  -3  13  -2   25.46    1.22
  -5 -13  -2    1.18    0.33
  -5 -13  -2    1.35    0.35
   5 -13   2    1.13    0.36
   5  13   2    1.96    0.41
   5  13   2    0.93    0.51
  -5  13  -2    1.61    0.50
  -5  13  -2    1.68    0.39
   7 -13   2   35.12    1.57
  -7 -13  -2   34.45    1.53
  -7 -13  -2   32.13    1.54
   7  13   2   33.77    1.90
  -7  13  -2   31.83    1.74
  -7  13  -2   34.88    1.53
   7  13   2   35.26    1.60
   9 -13   2   87.92    3.17
  -9 -13  -2   85.49    3.10
  -9 -13  -2   87.89    3.17
  -9  13  -2   89.07    3.13
  -9  13  -2   82.17    3.40
   9  13   2   85.51    3.22
   9  13   2   85.91    3.63
  11 -13   2   34.48    1.69
 -11 -13  -2   36.87    1.65
 -11 -13  -2   37.36    1.79
 -11 -13  -2   36.97    1.76
 -11  13  -2   36.52    1.70
  11  13   2   31.59    1.95
 -11  13  -2   35.13    2.02
 -13 -13  -2    0.88    0.57
 -13 -13  -2    1.77    0.55
 -13 -13  -2    1.25    0.64
 -13  13  -2    0.21    0.76
 -13  13  -2    0.59    0.61
  13  13   2    0.96    0.55
  13  13   2    1.53    0.98
 -15 -13  -2   16.32    1.59
 -15 -13  -2   11.32    1.36
 -15 -13  -2   11.82    1.50
  15  13   2   17.93    1.47
 -15  13  -2   13.52    1.80
  15  13   2   13.28    1.82
 -17 -13  -2   46.84    2.18
 -17 -13  -2   47.58    2.57
 -17 -13  -2   46.31    2.35
  17  13   2   42.67    2.37
 -17  13  -2   42.20    2.85
  17  13   2   40.37    3.51
 -16 -14   2    1.08    0.77
 -16 -14   2    1.59    0.95
 -16  14   2   -0.48    0.98
  16  14  -2    2.17    0.81
 -14 -14   2    0.46    0.63
  14  14  -2    0.44    1.34
 -14  14   2    1.78    0.84
  14  14  -2    0.27    0.68
  12 -14  -2    4.44    0.71
 -12 -14   2    2.60    0.62
 -12 -14   2    5.28    0.67
  12  14  -2    4.91    1.25
 -12  14   2    4.96    0.81
  12  14  -2    3.63    0.75
 -10 -14   2   42.52    1.77
 -10 -14   2   41.60    1.94
  10 -14  -2   41.07    1.92
 -10  14   2   42.93    1.96
  10  14  -2   42.31    3.17
  10  14  -2   38.48    2.00
  -8 -14   2    1.17    0.45
  -8 -14   2   -0.04    0.54
   8 -14  -2    1.82    0.80
  -8 -14   2    1.73    0.82
  -8  14   2    1.60    0.49
   8  14  -2    0.77    0.76
   8  14  -2    1.84    0.54
  -6 -14   2   17.62    1.02
  -6 -14   2   18.59    1.45
   6 -14  -2   15.14    1.05
  -6 -14   2   15.16    1.04
  -6  14   2   14.77    1.05
   6  14  -2   15.64    1.12
   6  14  -2   17.21    1.54
  -6  14   2   18.00    0.96
   4 -14  -2    7.70    0.73
  -4 -14   2    6.54    0.88
  -4 -14   2    9.03    0.77
  -4 -14   2    7.95    0.76
  -4  14   2    9.61    0.83
  -4  14   2    8.51    0.70
   4  14  -2    6.36    0.96
   4  14  -2    9.35    0.85
  -2 -14   2   25.13    1.30
   2 -14  -2   25.15    1.32
  -2 -14   2   25.93    1.32
   2 -14  -2   26.04    1.32
  -2  14   2   28.07    1.24
   2  14  -2   26.69    1.34
  -2  14   2   27.05    1.41
   2  14  -2   25.90    1.64
   0 -14   2   23.07    1.21
   0 -14  -2   23.71    1.22
   0 -14  -2   22.84    1.22
   0  14  -2   24.38    1.25
   0  14   2   21.43    1.33
   0  14   2   23.11    1.15
   0  14  -2   22.28    1.49
   2 -14   2   21.00    1.13
  -2 -14  -2   19.88    1.12
  -2 -14  -2   20.89    1.16
  -2  14  -2   19.11    1.14
  -2  14  -2   21.41    1.40
   2  14   2   19.97    1.32
   2  14   2   21.46    1.11
  -4 -14  -2   51.22    2.06
   4 -14   2   49.40    2.05
  -4 -14  -2   50.57    2.06
   4  14   2   49.67    2.32
  -4  14  -2   47.80    2.30
  -4  14  -2   52.76    2.07
   4  14   2   53.26    2.07
  -6 -14  -2    1.57    0.42
   6 -14   2    1.74    0.45
  -6 -14  -2    1.22    0.39
   6  14   2    1.49    0.45
  -6  14  -2    2.50    0.59
   6  14   2    1.68    0.67
  -6  14  -2    1.83    0.47
  -8 -14  -2   10.28    1.10
  -8 -14  -2   11.51    0.96
   8  14   2   13.39    1.79
  -8  14  -2   12.20    1.02
  -8  14  -2   11.48    1.28
   8  14   2   14.96    1.07
 -10 -14  -2   12.31    1.09
  10 -14   2   11.38    1.01
  10  14   2   12.70    1.60
 -10  14  -2   13.67    1.11
 -10  14  -2   12.52    1.36
  10  14   2   12.96    1.14
 -12 -14  -2    6.11    0.78
 -12 -14  -2    5.58    0.85
 -12 -14  -2    7.41    0.97
  12 -14   2    5.71    0.80
  12  14   2    7.80    1.07
  12  14   2    6.23    1.27
 -12  14  -2    8.25    1.12
 -14 -14  -2    4.76    0.99
 -14 -14  -2    4.63    0.80
 -14 -14  -2    6.65    0.97
  14  14   2    4.97    0.89
  14  14   2    5.17    1.40
 -14  14  -2    6.55    1.09
 -16 -14  -2   20.25    1.60
 -16 -14  -2   20.36    1.71
 -16 -14  -2   20.70    1.89
  16  14   2   16.79    1.66
  16  14   2   20.48    2.88
 -16  14  -2   17.73    2.18
 -15 -15   2    0.14    0.80
  15  15  -2    4.17    1.77
 -15  15   2   -0.25    0.94
  15  15  -2    0.72    0.81
 -13 -15   2    3.03    0.74
  13  15  -2    3.95    1.64
 -13  15   2    2.11    0.86
  13  15  -2    3.94    0.82
 -11 -15   2    1.44    0.60
  11 -15  -2    2.05    0.64
 -11 -15   2    1.44    0.64
 -11  15   2    1.30    0.70
  11  15  -2    2.98    0.69
  11  15  -2    1.34    1.22
  -9 -15   2    0.62    0.50
  -9 -15   2    1.59    0.53
   9 -15  -2    1.94    0.52
   9  15  -2    1.33    0.97
  -9  15   2    0.53    0.55
   9  15  -2    0.66    0.56
   7 -15  -2    0.45    0.44
  -7 -15   2    0.26    0.38
  -7 -15   2   -0.27    0.44
  -7  15   2   -0.02    0.48
   7  15  -2    1.22    0.94
  -5 -15   2    7.12    0.89
  -5 -15   2    8.90    0.88
   5 -15  -2    7.19    1.07
  -5  15   2    7.29    0.91
   5  15  -2    8.20    0.93
   5  15  -2   10.69    1.42
   3 -15  -2    2.92    0.52
  -3 -15   2    3.32    0.59
  -3 -15   2    3.93    0.58
  -3  15   2    4.41    0.69
   3  15  -2    4.78    0.67
  -3  15   2    4.14    0.57
   3  15  -2    4.29    0.88
  -1 -15   2   10.77    0.89
   1 -15  -2   11.05    0.90
   1 -15  -2   10.30    0.91
  -1  15   2   10.63    1.04
   1  15  -2   10.59    1.25
   1  15  -2   10.83    0.94
  -1 -15  -2    9.79    0.90
  -1 -15  -2   10.13    0.88
   1 -15   2   10.25    0.85
  -1  15  -2   11.40    0.97
   1  15   2    9.77    1.05
   1  15   2    9.65    0.84
  -1  15  -2    8.69    1.16
  -3 -15  -2    5.36    0.70
   3 -15   2    3.94    0.56
  -3 -15  -2    5.79    0.77
  -3  15  -2    5.17    0.67
   3  15   2    5.46    0.84
   3  15   2    5.38    0.73
  -3  15  -2    5.39    0.89
  -5 -15  -2    0.74    0.83
  -5 -15  -2    1.06    0.43
   5  15   2    0.45    0.45
  -5  15  -2    0.10    0.54
  -5  15  -2    0.81    0.47
   5  15   2    0.67    0.68
   7 -15   2    0.14    0.40
  -7 -15  -2    0.39    0.46
  -7  15  -2   -0.72    0.55
   7  15   2   -0.23    0.58
  -7  15  -2    0.37    0.50
   7  15   2   -0.17    0.44
  -9 -15  -2    6.69    0.91
   9 -15   2    5.11    0.74
  -9 -15  -2    4.38    0.68
  -9  15  -2    5.06    0.91
   9  15   2    4.20    0.99
   9  15   2    4.71    0.72
  11 -15   2    1.59    0.60
 -11 -15  -2    1.55    0.59
 -11 -15  -2    1.77    0.59
  11  15   2    3.12    0.71
 -11  15  -2    0.83    0.78
  11  15   2    1.82    1.02
 -13 -15  -2    4.71    0.81
 -13 -15  -2    5.52    0.93
 -13  15  -2    7.05    1.21
  13  15   2    5.38    1.37
  13  15   2    4.89    0.89
  12 -16  -2    1.23    0.65
 -12 -16   2    1.28    0.60
 -12  16   2    0.14    0.82
  12  16  -2    1.57    0.77
  12  16  -2    2.06    1.45
  10 -16  -2   14.79    1.28
 -10 -16   2   13.52    1.24
 -10 -16   2   15.68    1.30
  10  16  -2   14.02    2.20
 -10  16   2   12.29    1.36
  10  16  -2   13.03    1.39
  -8 -16   2    0.60    0.51
   8 -16  -2    0.98    0.56
   8  16  -2    1.49    0.65
   8  16  -2    1.80    0.99
  -8  16   2    0.41    0.59
  -6 -16   2    3.23    0.65
  -6 -16   2    4.29    0.67
   6  16  -2    3.35    1.00
   6  16  -2    2.73    0.68
  -6  16   2    3.94    0.72
  -4 -16   2    1.11    0.52
   4 -16  -2    0.97    0.47
  -4 -16   2    1.23    0.48
   4  16  -2    1.76    0.58
  -4  16   2    1.21    0.57
   4  16  -2    1.33    0.81
   2 -16  -2   12.13    1.10
  -2 -16   2   14.11    1.05
   2 -16  -2   12.38    1.05
   2  16  -2   12.08    1.46
  -2  16   2   14.49    1.02
  -2  16   2   12.19    1.18
   2  16  -2   14.07    1.13
   0 -16  -2    2.89    0.55
   0 -16   2    6.06    0.78
   0 -16  -2    3.72    0.63
   0  16   2    4.21    0.77
   0  16   2    5.91    0.85
   0  16  -2    3.69    0.65
   0  16  -2    3.86    0.85
   2 -16   2   10.08    0.93
  -2 -16  -2    9.98    0.99
  -2 -16  -2    9.11    0.94
   2  16   2   11.95    1.01
  -2  16  -2   10.89    1.02
   2  16   2    8.76    1.17
  -2  16  -2   10.04    1.26
  -4 -16  -2   -0.35    0.47
   4 -16   2    0.00    0.42
  -4 -16  -2    0.34    0.46
  -4  16  -2   -0.38    0.61
  -4  16  -2    0.30    0.49
   4  16   2   -0.63    0.57
   4  16   2    0.39    0.50
  -6 -16  -2    1.13    0.51
  -6 -16  -2    1.19    0.55
   6 -16   2    1.95    0.55
   6  16   2    2.11    0.79
   6  16   2    1.89    0.72
  -6  16  -2    1.10    0.68
  -6  16  -2    1.57    0.63
  -8 -16  -2    7.60    1.03
  -8 -16  -2    6.39    0.83
   8 -16   2    6.48    0.83
  -8  16  -2    7.01    1.07
  -8  16  -2    8.82    1.10
   8  16   2    7.48    1.24
   8  16   2    7.49    1.11
  10 -16   2    3.72    0.72
 -10 -16  -2    1.84    0.73
 -10 -16  -2    1.53    0.68
 -10  16  -2    2.66    0.92
  10  16   2    2.28    0.73
  10  16   2    2.32    1.01
 -12 -16  -2    5.07    0.94
 -12 -16  -2    1.80    0.76
  12 -16   2    2.95    0.74
 -12  16  -2    2.81    1.03
  12  16   2    4.17    1.28
  12  16   2    2.58    0.80
 -11 -17   2    4.96    0.87
  11 -17  -2    6.05    0.92
  11  17  -2    6.32    0.98
 -11  17   2    7.25    1.06
  11  17  -2    7.79    1.65
   9 -17  -2    6.57    0.94
  -9 -17   2   11.24    1.27
  -9 -17   2    7.99    0.98
  -9  17   2    8.64    1.28
   9  17  -2    8.83    1.34
   9  17  -2    6.49    1.49
  -7 -17   2   21.11    1.52
   7 -17  -2   20.29    1.45
  -7 -17   2   18.05    1.41
  -7  17   2   22.02    1.54
   7  17  -2   21.04    1.58
   7  17  -2   24.17    2.23
  -5 -17   2   11.39    1.12
   5 -17  -2   11.58    1.12
  -5 -17   2   15.86    1.30
   5  17  -2   12.18    1.26
   5  17  -2   11.65    1.72
  -5  17   2    9.16    1.22
   3 -17  -2    5.60    0.81
  -3 -17   2    5.66    0.76
  -3  17   2    5.32    0.85
   3  17  -2    5.04    0.86
   3  17  -2    5.18    1.05
  -1 -17   2   10.76    1.06
   1 -17  -2   12.32    1.09
   1 -17  -2   11.75    1.17
  -1  17   2   11.68    1.27
   1  17  -2   11.65    1.56
   1 -17   2   66.78    2.75
  -1 -17  -2   68.65    2.76
  -1 -17  -2   70.03    2.83
  -1  17  -2   67.20    3.19
   1  17   2   77.60    2.79
  -1  17  -2   73.54    2.89
   1  17   2   59.48    2.97
   3 -17   2    0.58    0.49
  -3 -17  -2    1.53    0.59
  -3 -17  -2    1.76    0.61
  -3  17  -2    1.37    0.65
   3  17   2    0.88    0.58
  -3  17  -2    1.23    0.78
   3  17   2    0.81    0.75
   5 -17   2    1.79    0.60
  -5 -17  -2    2.68    0.65
  -5 -17  -2    2.02    0.65
  -5  17  -2    2.31    0.90
   5  17   2    2.91    0.70
   5  17   2    1.88    0.80
  -5  17  -2    0.97    0.68
  -7 -17  -2    2.56    0.71
  -7 -17  -2    2.96    0.69
   7 -17   2    2.13    0.61
   7  17   2    1.43    0.90
  -7  17  -2    2.60    0.89
  -9 -17  -2    9.44    1.29
  -9 -17  -2    8.71    1.22
   9 -17   2    8.93    1.18
   9  17   2    9.30    1.35
   9  17   2    7.54    1.30
  -9  17  -2    8.51    1.28
  11 -17   2    4.86    0.92
 -11 -17  -2    5.44    0.97
 -11 -17  -2    4.18    0.85
  11  17   2    4.19    1.36
  11  17   2    5.67    0.94
 -11  17  -2    4.21    1.19
  -8 -18   2   11.38    1.32
   8 -18  -2   10.83    1.29
  -8 -18   2   10.75    1.44
   8  18  -2   11.74    1.73
  -8  18   2   11.36    1.43
   8  18  -2   11.09    1.44
   6 -18  -2    8.73    1.20
  -6 -18   2   10.48    1.24
   6  18  -2   11.01    1.65
   6  18  -2    9.84    1.43
  -6  18   2   10.80    1.35
  -4 -18   2   26.55    1.66
   4 -18  -2   26.89    1.66
   4  18  -2   26.97    2.32
   4  18  -2   28.95    1.83
  -4  18   2   27.17    1.82
   2 -18  -2   48.26    2.26
  -2 -18   2   50.37    2.30
   2  18  -2   45.36    2.81
  -2  18   2   50.53    2.47
   2  18  -2   49.79    2.48
   0 -18  -2    5.36    0.90
   0 -18   2    4.01    0.70
   0 -18  -2    5.15    0.78
   0  18  -2    3.80    1.06
   0  18   2    5.09    0.94
   0  18  -2    3.66    0.87
   2 -18   2   14.58    1.26
  -2 -18  -2   17.80    1.40
  -2 -18  -2   15.18    1.29
   2  18   2   17.31    1.42
  -2  18  -2   16.45    1.47
  -2  18  -2   12.74    1.72
   2  18   2   13.73    1.61
  -4 -18  -2   48.05    2.27
   4 -18   2   47.23    2.23
  -4 -18  -2   47.47    2.32
  -4  18  -2   51.43    2.34
   4  18   2   47.96    2.30
   4  18   2   45.00    2.64
  -4  18  -2   45.98    2.66
  -6 -18  -2   15.58    1.52
  -6 -18  -2   19.46    1.48
   6 -18   2   17.48    1.41
  -6  18  -2   13.06    1.76
   6  18   2   18.45    1.93
   6  18   2   22.74    1.60
   8 -18   2    0.18    0.68
  -8 -18  -2    0.31    0.89
  -8 -18  -2   -0.29    0.70
  -8  18  -2    1.36    0.97
   8  18   2   -0.55    1.05
   8  18   2    0.34    0.78
  -5 -19   2   14.10    1.51
   5 -19  -2   16.14    1.50
   5  19  -2   17.68    1.68
  -5  19   2   17.22    1.65
   5  19  -2   15.13    1.94
  -3 -19   2   -0.29    0.66
   3 -19  -2    1.55    0.69
   3  19  -2    1.74    1.13
  -3  19   2   -0.14    0.84
   3  19  -2    1.05    0.87
  -1 -19   2   20.42    1.51
   1 -19  -2   18.73    1.54
   1  19  -2   27.02    1.91
   1  19  -2   23.40    2.24
  -1  19   2   22.19    1.84
  -1 -19  -2   38.99    2.08
   1 -19   2   39.14    2.08
  -1  19  -2   46.38    2.31
   1  19   2   39.35    2.40
  -1  19  -2   40.07    2.63
  -3 -19  -2   43.84    2.19
   3 -19   2   37.98    2.05
  -3 -19  -2   38.47    2.07
   3  19   2   36.51    2.46
  -3  19  -2   40.12    2.55
  -5 -19  -2    0.03    0.79
  -5 -19  -2    1.08    0.81
   5 -19   2    0.25    0.73
   5  19   2    1.11    1.06
   5  19   2   -0.21    0.86
  -5  19  -2    0.76    1.08
 -22   0   3    1.53    0.92
 -22   0   3   -1.83    1.38
 -22   0   3    1.62    1.25
 -20   0   3    1.77    1.00
 -20   0   3   -0.29    1.11
 -20   0   3    0.22    0.67
  18   0  -3    0.12    0.35
 -18   0   3    0.08    0.47
 -18   0   3   -0.24    0.72
 -18   0   3    1.39    0.94
 -16   0   3   -0.01    0.56
 -16   0   3   -0.66    0.57
  16   0  -3    0.42    0.31
 -16   0   3    0.47    0.39
 -14   0   3   -0.10    0.48
 -14   0   3   -0.07    0.26
  14   0  -3    0.03    0.22
 -14   0   3    0.36    0.45
  14   0  -3    0.66    0.68
  12   0  -3    0.25    0.19
 -12   0   3    0.43    0.36
 -12   0   3    0.19    0.41
 -12   0   3    0.36    0.23
  12   0  -3    0.40    0.29
 -10   0   3    0.20    0.28
 -10   0   3    0.13    0.18
 -10   0   3    0.48    0.34
  10   0  -3   -0.13    0.19
  10   0  -3    0.11    0.14
   8   0  -3    0.02    0.10
  -8   0   3    0.22    0.14
   8   0  -3   -0.07    0.13
  -6   0   3    0.89    0.15
  -6   0   3    0.45    0.12
  -6   0   3    0.33    0.19
  -6   0   3    0.14    0.15
   6   0  -3    0.49    0.12
   6   0  -3    0.57    0.11
   4   0  -3    0.15    0.07
  -4   0   3   -0.09    0.14
  -4   0   3    0.14    0.09
   4   0  -3    0.06    0.12
  -4   0   3    0.14    0.10
   4   0  -3    0.12    0.05
  -4   0   3    0.03    0.06
  -4   0   3   -0.01    0.06
   4   0  -3    0.13    0.11
   2   0  -3    0.25    0.14
  -2   0   3    0.12    0.08
  -2   0   3    0.08    0.05
   2   0  -3    0.16    0.05
   2   0  -3    0.01    0.08
  -2   0   3    0.09    0.08
  -2   0   3   -0.01    0.11
   2   0  -3    0.24    0.04
  -2   0   3    0.22    0.06
   2   0  -3    0.21    0.08
   0   0   3    0.06    0.08
   0   0   3    0.09    0.10
   0   0  -3   -0.11    0.07
   0   0  -3    0.01    0.07
   0   0  -3   -0.01    0.04
   0   0  -3    0.13    0.11
   0   0   3    0.04    0.05
   0   0   3    0.00    0.07
  -2   0  -3    0.02    0.11
  -2   0  -3    0.54    0.13
  -2   0  -3    0.11    0.07
   2   0   3    0.04    0.07
   2   0   3    0.07    0.08
  -2   0  -3    0.16    0.04
   2   0   3    0.09    0.11
  -2   0  -3    0.14    0.12
   2   0   3    0.14    0.11
   4   0   3    0.13    0.16
   4   0   3    0.09    0.10
  -4   0  -3    0.18    0.13
  -4   0  -3    0.09    0.16
  -4   0  -3    0.03    0.07
  -4   0  -3    0.34    0.16
   4   0   3    0.28    0.13
  -6   0  -3   -0.11    0.16
   6   0   3    0.74    0.28
   6   0   3    0.28    0.16
  -6   0  -3    0.13    0.11
   6   0   3    0.23    0.16
  -6   0  -3   -0.21    0.22
  -8   0  -3    0.22    0.26
  -8   0  -3   -0.10    0.14
   8   0   3    0.09    0.16
 -10   0  -3    0.37    0.21
  10   0   3    0.13    0.25
 -10   0  -3    0.24    0.31
  12   0   3   -0.34    0.27
 -12   0  -3    0.28    0.23
 -12   0  -3    0.20    0.42
 -14   0  -3   -0.04    0.51
 -14   0  -3    0.46    0.30
 -16   0  -3   -0.10    0.36
 -16   0  -3   -0.20    0.61
 -18   0  -3   -0.44    0.49
 -18   0  -3   -0.04    0.91
 -20   0  -3   -0.81    0.62
  20   0   3    0.39    0.56
 -20   0  -3    0.00    1.26
 -22   0  -3    1.31    1.70
  22   0   3   -1.23    0.73
 -22   0  -3    0.81    1.74
 -22   0  -3    1.12    0.84
 -23  -1   3    2.69    1.82
 -23  -1   3    2.58    1.15
 -23  -1   3    2.67    1.62
 -23   1   3    3.90    1.10
 -23   1   3    5.14    1.65
 -23   1   3    3.15    1.88
 -21  -1   3   20.47    2.69
 -21  -1   3   19.51    1.67
 -21  -1   3   17.64    2.33
 -21   1   3   19.52    1.69
 -21   1   3   21.33    2.26
 -21   1   3   17.93    2.62
 -19  -1   3   20.78    1.51
 -19  -1   3   24.24    2.17
 -19  -1   3   21.78    2.35
 -19   1   3   21.18    1.99
  19   1  -3   23.81    1.24
 -19   1   3   25.49    1.55
 -19   1   3   21.10    2.27
 -17  -1   3   37.47    1.80
  17  -1  -3   36.83    1.39
 -17  -1   3   34.00    2.43
 -17  -1   3   36.56    2.27
 -17   1   3   35.54    2.16
  17   1  -3   36.01    1.52
 -17   1   3   35.55    2.40
 -17   1   3   36.38    1.74
 -15  -1   3    1.41    0.41
  15  -1  -3    1.82    0.31
 -15  -1   3    2.27    0.72
 -15  -1   3    0.93    0.57
 -15   1   3    1.90    0.41
  15   1  -3    1.67    0.34
 -15   1   3    0.34    0.51
  15   1  -3    1.76    0.70
 -15   1   3    1.46    0.65
 -13  -1   3    3.69    0.54
  13  -1  -3    4.41    0.40
 -13  -1   3    3.09    0.64
 -13  -1   3    3.72    0.65
  13  -1  -3    4.76    0.54
  13  -1  -3    5.94    1.11
  13   1  -3    5.59    0.72
  13   1  -3    3.87    0.44
 -13   1   3    3.67    0.62
 -13   1   3    3.95    0.52
  11  -1  -3   97.99    3.41
  11  -1  -3  103.59    3.05
 -11  -1   3   94.63    3.51
 -11  -1   3   91.64    3.63
  11  -1  -3   94.58    3.02
 -11  -1   3   97.69    3.25
  11   1  -3   98.57    3.14
  11   1  -3   90.76    3.11
  11   1  -3   96.73    3.35
 -11   1   3   91.36    3.22
 -11   1   3   96.04    3.46
   9  -1  -3    9.96    0.45
  -9  -1   3    8.42    0.71
  -9  -1   3    9.39    0.82
   9  -1  -3    9.29    0.59
   9  -1  -3    9.35    0.42
  -9  -1   3    8.98    0.57
   9   1  -3    9.41    0.67
  -9   1   3    8.02    0.50
  -9   1   3    8.46    0.66
   9   1  -3   10.32    0.56
   9   1  -3    8.57    0.50
   7  -1  -3    6.69    0.62
   7  -1  -3    7.03    0.32
   7  -1  -3    7.01    0.46
  -7  -1   3    6.98    0.55
  -7  -1   3    6.54    0.62
   7  -1  -3    6.87    0.31
  -7  -1   3    7.36    0.43
   7   1  -3    7.14    0.65
  -7   1   3    6.26    0.49
  -7   1   3    7.42    0.35
   7   1  -3    6.75    0.50
   7   1  -3    6.78    0.38
   7   1  -3    7.09    0.41
  -7   1   3    6.51    0.38
   5  -1  -3   45.90    1.42
  -5  -1   3   48.97    1.53
  -5  -1   3   45.24    1.55
   5  -1  -3   46.00    1.42
   5  -1  -3   44.64    1.51
  -5  -1   3   44.43    1.75
   5  -1  -3   43.39    1.57
  -5  -1   3   43.84    1.66
   5   1  -3   45.79    1.62
   5   1  -3   46.28    1.51
  -5   1   3   45.13    1.74
  -5   1   3   45.82    1.51
  -5   1   3   47.58    1.46
  -5   1   3   45.60    1.59
   5   1  -3   48.78    1.53
   5   1  -3   49.68    1.66
  -5   1   3   48.60    1.47
  -5   1   3   44.60    1.49
   3  -1  -3    2.47    0.16
  -3  -1   3    2.07    0.17
  -3  -1   3    1.76    0.28
  -3  -1   3    1.69    0.17
  -3  -1   3    1.97    0.22
   3  -1  -3    1.83    0.12
   3  -1  -3    2.34    0.16
  -3  -1   3    2.20    0.24
  -3   1   3    2.01    0.17
  -3   1   3    2.01    0.13
   3   1  -3    2.13    0.16
  -3   1   3    1.99    0.15
   3   1  -3    2.23    0.32
   3   1  -3    2.02    0.22
   3   1  -3    1.94    0.24
  -3   1   3    1.82    0.27
  -3   1   3    1.97    0.18
  -3   1   3    2.08    0.13
   3   1  -3    2.16    0.18
   1  -1  -3  263.25    7.73
   1  -1  -3  270.61    7.76
  -1  -1   3  248.69    7.89
   1  -1  -3  258.00    7.74
   1  -1  -3  244.92    7.74
  -1  -1   3  254.02    7.83
   1  -1  -3  277.73    7.84
  -1  -1   3  259.24    7.76
   1  -1  -3  264.81    7.85
  -1  -1   3  252.90    7.83
   1   1  -3  251.61    7.82
   1   1  -3  262.31    7.82
  -1   1   3  264.61    7.71
  -1   1   3  254.58    7.83
  -1   1   3  269.10    7.72
   1   1  -3  271.23    7.91
   1   1  -3  245.33    7.75
  -1   1   3  257.01    7.84
  -1   1   3  252.19    7.70
  -1   1   3  256.45    7.76
   1   1  -3  267.24    7.76
   1  -1   3   56.27    1.77
   1  -1   3   55.03    1.86
  -1  -1  -3   53.60    1.74
   1  -1   3   52.79    1.67
  -1  -1  -3   55.05    1.67
  -1  -1  -3   54.82    1.82
   1  -1   3   58.85    1.86
   1  -1   3   57.57    1.85
  -1  -1  -3   59.41    1.86
  -1  -1  -3   56.42    1.79
   1   1   3   56.06    1.85
  -1   1  -3   55.31    1.85
  -1   1  -3   57.76    1.88
  -1   1  -3   55.85    1.84
   1   1   3   54.45    1.82
   1   1   3   55.82    1.78
   1   1   3   53.28    1.75
  -1   1  -3   53.77    1.77
  -1   1  -3   55.25    1.68
   3  -1   3    9.28    0.51
   3  -1   3    8.97    0.42
  -3  -1  -3    8.30    0.49
  -3  -1  -3    8.23    0.40
   3  -1   3    8.73    0.48
  -3  -1  -3    9.31    0.45
  -3   1  -3    8.36    0.41
  -3   1  -3    9.43    0.34
  -3   1  -3    9.03    0.51
   3   1   3    8.59    0.48
  -3   1  -3    9.27    0.50
  -3   1  -3    9.29    0.52
   3   1   3    9.84    0.53
   3   1   3    9.05    0.42
  -5  -1  -3    7.77    0.43
   5  -1   3    7.89    0.51
  -5  -1  -3    7.34    0.54
   5  -1   3    7.98    0.57
  -5  -1  -3    9.60    0.59
   5   1   3    9.03    0.60
  -5   1  -3    7.39    0.54
  -5   1  -3    8.43    0.36
   5   1   3    8.83    0.46
  -5   1  -3    8.68    0.57
  -5   1  -3    8.75    0.58
   7  -1   3  133.01    4.56
   7  -1   3  139.77    4.43
   7  -1   3  139.30    4.62
  -7  -1  -3  140.24    4.47
   7   1   3  135.71    4.57
  -7   1  -3  138.93    4.46
  -7   1  -3  149.24    4.36
   7   1   3  150.66    4.69
  -7   1  -3  145.70    4.68
  -9  -1  -3    6.20    0.72
  -9  -1  -3    6.13    0.49
  -9   1  -3    5.95    0.47
  -9   1  -3    7.28    0.73
 -11  -1  -3    0.79    0.27
 -11  -1  -3    1.59    0.51
  11  -1   3    2.00    0.39
 -11   1  -3    1.06    0.39
  11   1   3    0.95    0.33
 -11   1  -3    1.00    0.27
 -13  -1  -3   10.70    1.12
 -13  -1  -3   10.67    0.78
 -13   1  -3    9.33    1.03
 -13   1  -3   10.05    0.77
 -15  -1  -3   18.72    1.17
 -15  -1  -3   21.56    1.69
 -15   1  -3   19.51    1.61
 -15   1  -3   21.18    1.19
 -17  -1  -3   37.83    2.43
 -17  -1  -3   36.44    1.86
 -17   1  -3   37.16    1.83
 -17   1  -3   33.99    2.31
 -19  -1  -3    0.74    0.58
 -19   1  -3   -0.78    0.94
 -19   1  -3   -0.23    0.56
  21  -1   3   -0.11    0.65
 -21  -1  -3    0.19    1.49
 -21  -1  -3    1.90    1.63
 -21  -1  -3    0.95    0.77
  21   1   3    1.03    0.66
 -21   1  -3    0.48    1.35
 -21   1  -3    0.90    0.78
 -22  -2   3    7.31    1.92
 -22  -2   3    5.29    1.56
 -22  -2   3    5.56    1.05
 -22   2   3    6.12    1.12
 -22   2   3    6.56    1.75
 -22   2   3    6.58    1.50
 -20  -2   3   41.05    2.90
 -20  -2   3   39.51    3.12
 -20  -2   3   44.62    2.33
 -20   2   3   47.60    3.23
  20   2  -3   47.20    1.98
 -20   2   3   49.02    2.88
 -18  -2   3   11.46    1.10
 -18  -2   3   13.55    1.72
 -18  -2   3   11.43    1.81
 -18   2   3   11.09    1.71
  18   2  -3   13.09    0.97
 -18   2   3   13.84    1.14
 -18   2   3   14.21    1.97
 -16  -2   3    6.42    0.79
  16  -2  -3    5.71    0.59
 -16  -2   3    5.09    1.02
 -16  -2   3    6.24    1.07
  16   2  -3    6.21    0.67
 -16   2   3    4.14    0.61
 -16   2   3    6.15    0.92
 -14  -2   3   42.58    1.85
 -14  -2   3   44.39    2.20
  14  -2  -3   42.66    1.47
  14  -2  -3   43.46    1.57
 -14  -2   3   41.11    2.28
 -14   2   3   43.45    1.78
  14   2  -3   46.29    2.11
 -14   2   3   44.52    2.09
  14   2  -3   43.11    1.69
 -12  -2   3   88.97    3.53
  12  -2  -3   93.69    2.77
  12  -2  -3   93.70    3.00
  12  -2  -3   85.97    2.75
 -12  -2   3   87.18    3.09
 -12  -2   3   89.38    3.39
  12   2  -3   85.88    3.22
 -12   2   3   84.12    3.01
  12   2  -3   86.08    2.96
 -12   2   3   86.00    3.27
  10  -2  -3    0.72    0.27
  10  -2  -3    0.54    0.12
 -10  -2   3    0.05    0.27
 -10  -2   3    0.47    0.21
 -10  -2   3    0.65    0.36
 -10   2   3    0.48    0.18
  10   2  -3    0.84    0.22
  10   2  -3    0.46    0.30
 -10   2   3    0.48    0.28
  -8  -2   3   16.58    0.80
   8  -2  -3   17.84    0.72
  -8  -2   3   15.77    1.10
   8  -2  -3   20.14    0.63
   8  -2  -3   17.27    0.58
  -8   2   3   18.11    0.71
  -8   2   3   16.05    0.71
   8   2  -3   18.85    0.81
   8   2  -3   17.37    0.77
   8   2  -3   17.26    0.92
  -8   2   3   15.14    0.85
   6  -2  -3   17.59    0.61
  -6  -2   3   18.48    0.74
  -6  -2   3   17.16    0.94
   6  -2  -3   18.04    0.61
  -6  -2   3   17.07    0.87
  -6  -2   3   16.33    0.74
   6   2  -3   18.18    0.84
  -6   2   3   17.09    0.74
   6   2  -3   17.51    0.87
   6   2  -3   16.85    0.71
  -6   2   3   17.04    0.64
  -6   2   3   17.07    0.65
  -6   2   3   18.30    0.71
   6   2  -3   16.18    0.72
  -4  -2   3    3.03    0.24
   4  -2  -3    3.13    0.20
  -4  -2   3    2.66    0.36
  -4  -2   3    3.49    0.26
  -4  -2   3    3.01    0.33
  -4  -2   3    3.80    0.32
   4   2  -3    2.88    0.22
  -4   2   3    3.19    0.19
   4   2  -3    2.67    0.25
  -4   2   3    3.05    0.15
  -4   2   3    3.47    0.20
   4   2  -3    3.31    0.35
   4   2  -3    2.69    0.30
  -4   2   3    2.75    0.21
   4   2  -3    3.61    0.43
  -4   2   3    2.98    0.22
  -4   2   3    2.70    0.15
  -2  -2   3  200.27    6.73
  -2  -2   3  228.50    6.91
   2  -2  -3  216.87    6.67
  -2  -2   3  239.49    6.83
   2  -2  -3  217.01    6.68
  -2  -2   3  231.28    6.72
  -2  -2   3  216.88    6.82
  -2   2   3  231.91    6.68
   2   2  -3  227.22    6.63
   2   2  -3  231.50    6.74
  -2   2   3  225.59    6.64
   2   2  -3  210.19    6.72
  -2   2   3  215.15    6.81
   2   2  -3  223.68    6.82
  -2   2   3  218.18    6.64
   2   2  -3  233.41    6.83
  -2   2   3  229.04    6.68
   0  -2   3   39.34    1.51
   0  -2  -3   43.70    1.44
   0  -2  -3   39.91    1.35
   0  -2   3   43.97    1.47
   0  -2   3   41.65    1.44
   0  -2   3   42.55    1.32
   0  -2  -3   41.02    1.47
   0  -2  -3   41.19    1.36
   0  -2   3   44.90    1.40
   0  -2  -3   41.96    1.30
   0  -2  -3   42.94    1.32
   0   2  -3   43.07    1.40
   0   2   3   42.30    1.40
   0   2  -3   41.52    1.43
   0   2   3   42.97    1.38
   0   2   3   42.37    1.45
   0   2   3   43.98    1.33
   0   2   3   43.73    1.32
   0   2  -3   44.12    1.54
   0   2  -3   40.96    1.47
   0   2   3   44.04    1.36
   2  -2   3   32.88    1.05
   2  -2   3   32.82    1.19
   2  -2   3   34.80    1.14
   2  -2   3   30.37    1.22
   2  -2   3   33.72    1.23
  -2  -2  -3   32.47    1.19
  -2  -2  -3   32.28    1.09
  -2  -2  -3   32.42    1.10
  -2  -2  -3   36.47    1.22
  -2  -2  -3   32.46    1.11
   2   2   3   33.53    1.12
   2   2   3   33.10    1.20
   2   2   3   33.75    1.22
  -2   2  -3   34.24    1.20
  -2   2  -3   32.75    1.05
  -2   2  -3   32.82    1.23
  -2   2  -3   32.40    1.13
  -4  -2  -3   73.15    2.46
   4  -2   3   78.58    2.46
  -4  -2  -3   81.64    2.45
  -4  -2  -3   73.16    2.59
   4  -2   3   76.75    2.58
   4  -2   3   73.68    2.37
  -4  -2  -3   81.65    2.59
   4  -2   3   70.78    2.53
  -4   2  -3   77.20    2.61
   4   2   3   77.96    2.47
  -4   2  -3   81.41    2.63
  -4   2  -3   78.91    2.58
  -4   2  -3   71.14    2.46
   4   2   3   79.36    2.63
  -4   2  -3   80.38    2.38
   4   2   3   74.28    2.55
   6  -2   3   23.99    1.08
  -6  -2  -3   22.67    1.09
  -6  -2  -3   24.12    1.11
   6  -2   3   24.20    0.92
   6  -2   3   22.11    1.00
  -6  -2  -3   21.60    0.93
  -6   2  -3   21.85    0.92
  -6   2  -3   24.07    0.85
   6   2   3   23.08    1.02
  -6   2  -3   23.50    1.10
   6   2   3   24.13    1.13
  -6   2  -3   23.07    1.12
  -6   2  -3   23.12    1.08
   8  -2   3    3.71    0.45
  -8  -2  -3    5.89    0.62
  -8  -2  -3    3.95    0.40
   8  -2   3    4.39    0.44
  -8   2  -3    4.41    0.37
   8   2   3    4.05    0.45
   8   2   3    4.22    0.62
 -10  -2  -3   15.43    0.83
  10  -2   3   14.73    0.90
 -10   2  -3   14.83    1.03
 -10   2  -3   15.67    0.81
  10   2   3   15.40    0.92
 -12  -2  -3   40.62    1.70
  12  -2   3   38.91    1.77
  12   2   3   41.73    1.82
 -12   2  -3   43.75    2.01
 -12   2  -3   39.44    1.66
 -14  -2  -3   26.25    1.80
 -14  -2  -3   28.28    1.40
 -14   2  -3   28.88    1.76
 -14   2  -3   29.00    1.39
 -16  -2  -3    0.56    0.41
 -16  -2  -3   -1.04    0.74
 -16   2  -3    0.08    0.36
 -16   2  -3    1.09    0.71
 -18  -2  -3   35.88    2.01
 -18  -2  -3   37.32    2.58
 -18   2  -3   28.69    2.32
 -18   2  -3   34.70    1.84
 -20  -2  -3   20.59    2.75
 -20  -2  -3   24.14    2.57
 -20  -2  -3   21.14    1.63
  20  -2   3   20.55    1.36
  20   2   3   21.40    1.42
 -20   2  -3   19.30    1.61
 -20   2  -3   17.98    2.31
 -22  -2  -3   11.48    1.64
 -22  -2  -3   14.18    2.25
 -22  -2  -3   14.18    2.43
 -22   2  -3   10.82    1.62
 -22   2  -3   11.05    2.00
  22   2   3   11.91    1.42
 -23  -3   3   31.68    3.82
 -23  -3   3   28.38    2.25
 -23  -3   3   28.84    3.43
 -23   3   3   31.08    3.52
 -23   3   3   32.58    2.33
 -23   3   3   30.02    2.87
 -21  -3   3    1.74    1.27
 -21  -3   3    0.09    0.72
 -21  -3   3    0.46    1.44
  21   3  -3    2.63    0.75
 -21   3   3    0.40    1.08
 -21   3   3    2.20    1.39
 -21   3   3    1.34    0.82
 -19  -3   3   27.58    1.73
 -19  -3   3   25.52    2.29
 -19  -3   3   25.56    2.44
 -19  -3   3   27.70    1.28
  19   3  -3   27.78    1.48
 -19   3   3   27.05    2.07
 -19   3   3   27.11    2.40
 -19   3   3   29.60    1.70
 -17  -3   3   52.74    2.96
 -17  -3   3   52.78    2.35
 -17  -3   3   54.40    2.86
 -17   3   3   54.15    2.25
 -17   3   3   52.08    2.64
  17   3  -3   52.72    2.11
 -15  -3   3   70.16    2.78
 -15  -3   3   71.75    3.29
 -15  -3   3   72.29    3.21
  15   3  -3   74.69    3.08
 -15   3   3   72.07    2.69
  15   3  -3   72.06    2.62
 -15   3   3   72.45    3.04
 -13  -3   3   21.64    1.14
  13  -3  -3   22.77    1.08
 -13  -3   3   20.15    1.49
 -13  -3   3   21.43    1.45
  13   3  -3   22.47    1.41
  13   3  -3   22.23    1.06
 -13   3   3   20.10    1.28
 -13   3   3   21.53    1.06
 -11  -3   3   66.80    2.69
 -11  -3   3   66.05    2.41
 -11  -3   3   64.97    2.80
  11  -3  -3   69.51    2.20
  11   3  -3   63.52    2.31
  11   3  -3   64.07    2.57
 -11   3   3   66.07    2.51
 -11   3   3   66.75    2.29
  -9  -3   3  151.24    5.01
   9  -3  -3  166.08    4.76
  -9  -3   3  156.98    5.33
  -9  -3   3  155.09    5.26
  -9   3   3  159.65    4.87
   9   3  -3  154.10    4.96
  -9   3   3  155.04    5.06
   9   3  -3  156.68    5.18
  -7  -3   3  180.06    5.44
  -7  -3   3  172.87    5.66
  -7  -3   3  183.37    5.94
  -7  -3   3  184.76    5.88
  -7   3   3  187.99    5.55
  -7   3   3  176.10    5.50
   7   3  -3  175.39    5.62
   7   3  -3  187.76    5.64
   7   3  -3  189.14    5.82
  -7   3   3  177.44    5.63
  -5  -3   3   33.99    1.05
  -5  -3   3   33.80    1.36
  -5  -3   3   31.39    1.40
  -5  -3   3   34.21    1.20
  -5   3   3   36.76    1.05
  -5   3   3   33.31    1.16
   5   3  -3   32.71    1.33
   5   3  -3   31.03    1.19
  -5   3   3   31.14    1.12
  -5   3   3   33.13    1.05
   5   3  -3   35.38    1.70
  -5   3   3   32.72    1.13
  -3  -3   3  166.38    4.86
   3  -3  -3  145.28    4.81
   3  -3  -3  151.25    4.81
  -3  -3   3  153.94    5.06
  -3  -3   3  152.87    4.88
  -3  -3   3  155.30    4.73
  -3  -3   3  172.23    4.99
  -3  -3   3  143.12    4.97
   3   3  -3  158.93    4.87
   3   3  -3  167.78    5.08
  -3   3   3  163.71    4.81
  -3   3   3  163.57    4.82
   3   3  -3  161.89    4.88
   3   3  -3  161.56    5.00
   3   3  -3  163.85    5.00
  -1  -3   3  418.21   12.16
  -1  -3   3  384.79   12.21
  -1  -3   3  392.88   12.09
   1  -3  -3  373.90   12.01
   1  -3  -3  404.22   12.23
  -1  -3   3  427.74   12.06
   1   3  -3  410.56   12.17
  -1   3   3  390.11   12.06
  -1   3   3  393.22   12.09
  -1   3   3  386.57   12.02
  -1   3   3  416.79   12.00
   1   3  -3  406.79   12.07
   1   3  -3  434.04   12.26
  -1   3   3  414.34   12.02
   1   3  -3  411.48   12.07
   1   3  -3  391.40   12.16
   1   3  -3  403.72   12.37
   1  -3   3   69.99    2.25
   1  -3   3   64.63    2.29
  -1  -3  -3   66.09    2.07
   1  -3   3   67.24    2.19
  -1  -3  -3   70.01    2.20
   1  -3   3   67.50    2.09
  -1  -3  -3   65.32    2.08
  -1  -3  -3   65.58    2.12
  -1  -3  -3   70.13    2.16
   1   3   3   67.73    2.21
  -1   3  -3   68.64    2.19
   1   3   3   71.64    2.14
  -1   3  -3   65.76    2.16
   1   3   3   70.53    2.11
  -1   3  -3   68.11    2.09
   1   3   3   63.91    2.19
  -1   3  -3   63.29    2.25
  -3  -3  -3   18.55    0.78
   3  -3   3   17.18    0.63
  -3  -3  -3   17.63    0.78
   3  -3   3   18.24    0.70
   3  -3   3   17.70    0.85
   3  -3   3   16.27    0.73
  -3  -3  -3   16.96    0.67
   3  -3   3   18.16    0.81
  -3  -3  -3   16.84    0.67
  -3  -3  -3   17.48    0.60
  -3   3  -3   18.37    0.64
  -3   3  -3   17.11    0.70
   3   3   3   17.15    0.75
  -3   3  -3   17.13    0.76
  -3   3  -3   18.10    0.87
   3   3   3   18.00    0.70
   3   3   3   15.42    1.04
  -3   3  -3   16.78    0.80
   5  -3   3   58.47    2.05
   5  -3   3   60.06    2.11
   5  -3   3   59.65    1.96
  -5  -3  -3   60.11    2.10
  -5  -3  -3   55.18    1.96
  -5  -3  -3   58.92    2.14
   5  -3   3   57.50    1.90
   5   3   3   62.05    2.18
   5   3   3   59.50    2.00
  -5   3  -3   63.80    2.12
  -5   3  -3   59.92    2.19
  -5   3  -3   60.65    1.90
  -5   3  -3   56.00    2.12
   5   3   3   56.81    2.05
  -5   3  -3   57.68    1.97
  -7  -3  -3   90.79    3.19
   7  -3   3  103.56    3.14
  -7  -3  -3  100.58    3.41
   7  -3   3   96.32    3.27
  -7   3  -3   93.04    3.16
  -7   3  -3   99.08    3.08
   7   3   3  102.21    3.43
   7   3   3   95.69    3.29
  -7   3  -3   94.13    3.36
  -9  -3  -3  192.29    6.07
  -9  -3  -3  194.86    6.35
   9  -3   3  188.88    6.15
  -9   3  -3  195.27    6.04
  -9   3  -3  191.88    6.29
   9   3   3  189.93    6.18
 -11  -3  -3   28.53    1.27
 -11  -3  -3   26.55    1.58
  11  -3   3   26.77    1.31
 -11   3  -3   27.08    1.20
  11   3   3   25.57    1.33
 -11   3  -3   27.88    1.47
 -13  -3  -3   56.24    2.25
 -13  -3  -3   59.05    2.68
 -13   3  -3   57.20    2.21
 -13   3  -3   55.58    2.54
 -15  -3  -3  166.18    6.04
 -15  -3  -3  162.46    5.51
 -15   3  -3  161.01    5.90
 -15   3  -3  161.51    5.45
 -17  -3  -3   52.07    2.36
 -17  -3  -3   53.53    3.05
 -17  -3  -3   55.41    2.83
 -17   3  -3   53.05    2.82
 -17   3  -3   53.10    2.31
 -19  -3  -3    6.00    0.88
 -19  -3  -3    5.40    1.60
 -19  -3  -3    8.33    1.56
  19   3   3    6.81    0.98
 -19   3  -3    5.99    0.88
 -19   3  -3    6.37    1.35
 -21  -3  -3    3.58    1.71
 -21  -3  -3    3.42    1.85
 -21  -3  -3    1.42    0.82
 -21   3  -3    2.22    0.84
  21   3   3    3.43    0.78
 -21   3  -3    1.62    1.39
 -22  -4   3   70.39    4.35
 -22  -4   3   77.09    4.65
 -22  -4   3   72.33    3.39
  22   4  -3   76.56    3.01
 -22   4   3   74.64    3.31
 -22   4   3   72.80    4.43
 -22   4   3   72.29    3.88
 -20  -4   3   39.71    2.16
 -20  -4   3   34.16    2.88
 -20  -4   3   34.83    3.05
 -20   4   3   39.93    3.02
 -20   4   3   37.22    2.09
  20   4  -3   38.08    1.89
 -20   4   3   35.47    2.53
 -18  -4   3   21.81    2.06
 -18  -4   3   17.37    1.53
 -18  -4   3   18.83    0.98
 -18  -4   3   17.51    2.08
 -18   4   3   17.18    1.27
  18   4  -3   16.41    1.18
 -18   4   3   15.63    1.61
 -16  -4   3   -0.18    0.72
 -16  -4   3    0.45    0.27
 -16  -4   3    0.40    0.44
 -16  -4   3    1.06    0.76
 -16   4   3    0.71    0.43
  16   4  -3    0.82    0.40
  16   4  -3    0.75    1.22
 -16   4   3    1.08    0.61
 -14  -4   3  129.84    4.13
 -14  -4   3  128.15    4.96
 -14  -4   3  126.61    4.51
 -14  -4   3  129.46    4.92
  14   4  -3  132.70    4.39
 -14   4   3  135.03    4.37
 -14   4   3  130.68    4.68
  14   4  -3  135.43    4.79
 -12  -4   3  188.18    6.27
 -12  -4   3  182.20    6.28
 -12  -4   3  181.75    5.54
 -12  -4   3  181.24    5.89
 -12   4   3  181.60    5.98
 -12   4   3  178.35    5.70
  12   4  -3  173.76    5.77
  12   4  -3  178.91    6.09
 -10  -4   3  129.80    4.59
 -10  -4   3  132.88    4.01
 -10  -4   3  133.92    4.64
 -10  -4   3  126.47    4.29
  10   4  -3  126.95    4.48
  10   4  -3  128.08    4.23
 -10   4   3  128.57    4.31
 -10   4   3  134.58    4.12
  -8  -4   3   37.83    1.22
  -8  -4   3   36.42    1.69
  -8  -4   3   37.83    1.50
   8   4  -3   38.55    1.63
  -8   4   3   35.84    1.40
   8   4  -3   34.34    1.40
  -8   4   3   36.91    1.26
  -6  -4   3  400.94   12.38
   6  -4  -3  376.82   12.06
  -6  -4   3  377.01   12.14
  -6  -4   3  405.73   12.35
  -6  -4   3  393.77   11.93
  -6   4   3  398.53   11.92
  -6   4   3  425.30   12.05
  -6   4   3  391.48   12.00
   6   4  -3  411.00   12.32
   6   4  -3  419.89   12.37
   6   4  -3  386.87   12.11
   6   4  -3  417.54   12.33
   6   4  -3  415.31   12.15
  -4  -4   3  295.00    9.01
  -4  -4   3  315.21    9.36
   4  -4  -3  279.76    9.10
  -4  -4   3  304.06    9.15
  -4  -4   3  321.87    9.31
   4  -4  -3  279.69    9.09
  -4  -4   3  300.98    9.39
  -4  -4   3  276.18    9.17
  -4   4   3  313.04    9.11
   4   4  -3  308.36    9.18
   4   4  -3  306.74    9.33
   4   4  -3  323.29    9.01
   4   4  -3  316.59    9.35
   4   4  -3  278.13    9.15
   4   4  -3  320.21    9.39
  -4   4   3  307.51    9.11
   2  -4  -3  160.36    5.08
  -2  -4   3  175.91    5.12
  -2  -4   3  162.47    5.03
   2  -4  -3  157.03    5.07
  -2  -4   3  179.83    5.26
  -2  -4   3  163.28    5.32
  -2   4   3  168.11    5.08
   2   4  -3  169.22    5.27
   2   4  -3  168.80    5.01
   2   4  -3  173.79    5.34
   2   4  -3  152.80    5.12
  -2   4   3  169.68    5.07
   2   4  -3  172.85    5.15
   2   4  -3  166.06    5.27
   0  -4   3   56.76    1.86
   0  -4   3   57.61    1.89
   0  -4   3   57.02    1.97
   0  -4   3   55.82    1.82
   0  -4  -3   56.40    1.82
   0  -4   3   53.35    2.02
   0  -4  -3   55.47    1.84
   0  -4  -3   59.37    1.75
   0   4   3   59.27    1.86
   0   4   3   56.09    1.88
   0   4  -3   56.31    1.99
   0   4   3   59.60    1.82
   0   4   3   58.26    1.79
   0   4   3   58.17    1.80
   0   4   3   56.36    1.87
   0   4  -3   59.65    2.08
   0   4  -3   58.16    1.81
   2  -4   3  354.99   10.55
  -2  -4  -3  370.11   10.61
  -2  -4  -3  338.03   10.54
   2  -4   3  341.50   10.50
   2  -4   3  388.99   10.70
   2  -4   3  338.71   10.58
  -2  -4  -3  337.77   10.50
   2  -4   3  340.61   10.73
  -2  -4  -3  340.15   10.69
  -2  -4  -3  348.78   10.50
   2   4   3  374.24   10.56
   2   4   3  363.11   10.68
   2   4   3  359.10   10.55
  -2   4  -3  328.74   10.69
  -2   4  -3  366.42   10.61
  -2   4  -3  351.16   10.58
  -2   4  -3  382.90   10.81
  -2   4  -3  353.60   10.51
   2   4   3  306.39   10.57
  -4  -4  -3  328.77   10.54
  -4  -4  -3  356.89   10.43
  -4  -4  -3  363.24   10.67
  -4  -4  -3  334.16   10.55
   4  -4   3  354.24   10.55
   4  -4   3  339.76   10.62
  -4  -4  -3  354.28   10.45
   4  -4   3  358.37   10.69
   4  -4   3  336.71   10.50
  -4  -4  -3  355.65   10.72
  -4   4  -3  355.42   10.51
   4   4   3  328.89   10.63
  -4   4  -3  375.16   10.67
  -4   4  -3  329.97   10.57
  -4   4  -3  352.55   10.74
   4   4   3  359.09   10.78
  -4   4  -3  371.41   10.84
   4   4   3  364.06   10.59
   6  -4   3   88.46    3.09
   6  -4   3   94.29    3.00
  -6  -4  -3   89.37    3.01
  -6  -4  -3   95.62    3.19
   6  -4   3   93.88    2.97
  -6  -4  -3   97.28    3.26
  -6  -4  -3   92.22    3.05
  -6   4  -3   97.33    3.20
  -6   4  -3   95.08    2.97
   6   4   3   91.98    3.13
  -6   4  -3   92.44    3.04
   6   4   3   99.34    3.32
  -6   4  -3   91.65    3.23
  -8  -4  -3    2.18    0.42
  -8  -4  -3    2.73    0.36
   8  -4   3    2.26    0.31
   8  -4   3    1.81    0.32
   8   4   3    1.72    0.31
   8   4   3    3.19    0.60
  -8   4  -3    2.83    0.47
  10  -4   3  129.09    4.38
 -10  -4  -3  132.01    4.31
 -10  -4  -3  127.48    4.60
  10   4   3  131.84    4.43
 -10   4  -3  130.42    4.25
 -10   4  -3  131.25    4.54
 -12  -4  -3  330.75   10.57
 -12  -4  -3  329.18   10.19
 -12   4  -3  322.30   10.11
 -12   4  -3  322.32   10.47
 -14  -4  -3   30.81    1.56
 -14  -4  -3   31.38    1.78
 -14  -4  -3   34.32    2.07
 -14   4  -3   33.25    1.88
 -14   4  -3   31.83    1.51
 -16  -4  -3    9.18    1.41
 -16  -4  -3    7.98    0.93
 -16  -4  -3   10.32    1.42
 -16   4  -3    7.59    0.87
 -16   4  -3    6.82    1.07
 -18  -4  -3   79.54    3.88
 -18  -4  -3   67.31    2.97
 -18  -4  -3   74.93    3.54
 -18   4  -3   67.48    2.90
 -18   4  -3   66.97    3.43
 -20  -4  -3   82.49    4.33
 -20  -4  -3   81.25    4.58
 -20  -4  -3   76.65    3.35
 -20  -4  -3   80.12    3.05
  20   4   3   76.58    3.12
 -20   4  -3   79.29    4.01
 -20   4  -3   76.69    3.31
 -22  -4  -3   14.91    1.44
 -22  -4  -3   15.92    2.69
 -22  -4  -3   18.51    1.88
 -22   4  -3   14.22    2.12
  22   4   3   13.43    1.52
 -22   4  -3   15.19    1.88
 -21  -5   3   -0.68    1.56
 -21  -5   3    1.64    0.87
 -21  -5   3   -0.20    1.51
  21   5  -3   -0.07    0.74
 -21   5   3    2.84    1.48
 -21   5   3    1.24    0.87
 -21   5   3   -0.11    1.07
 -19  -5   3   23.54    2.51
 -19  -5   3   21.54    1.65
 -19  -5   3   26.65    2.59
 -19   5   3   24.31    1.61
 -19   5   3   23.43    1.93
  19   5  -3   25.81    1.53
 -17  -5   3  208.86    7.13
 -17  -5   3  205.93    7.70
 -17  -5   3  218.19    8.20
 -17  -5   3  219.35    6.62
  17   5  -3  207.87    6.90
 -17   5   3  215.54    6.94
 -17   5   3  211.09    7.39
 -15  -5   3   89.03    3.82
 -15  -5   3   87.31    3.34
 -15  -5   3   89.04    3.84
 -15  -5   3   90.52    2.92
 -15   5   3   85.72    3.46
  15   5  -3   86.20    3.70
  15   5  -3   88.83    3.21
 -15   5   3   91.29    3.17
 -13  -5   3    2.16    0.69
 -13  -5   3    2.34    0.65
 -13  -5   3    2.01    0.30
 -13  -5   3    2.34    0.46
 -13   5   3    2.05    0.39
  13   5  -3    2.58    0.43
 -13   5   3    1.71    0.46
  13   5  -3    2.65    0.68
 -11  -5   3   43.23    2.09
 -11  -5   3   44.29    2.09
 -11  -5   3   44.64    1.49
 -11  -5   3   42.20    1.78
  11   5  -3   44.05    2.03
 -11   5   3   44.29    1.81
  11   5  -3   41.53    1.72
 -11   5   3   42.48    1.57
  -9  -5   3  241.87    7.35
  -9  -5   3  238.51    7.89
  -9  -5   3  246.12    7.65
  -9  -5   3  245.89    7.94
   9   5  -3  253.52    7.88
   9   5  -3  233.85    7.59
  -9   5   3  242.29    7.57
  -9   5   3  248.02    7.39
  -7  -5   3  458.84   13.71
   7  -5  -3  457.59   13.61
  -7  -5   3  460.65   13.93
  -7  -5   3  453.43   13.45
   7   5  -3  467.86   13.92
  -7   5   3  459.71   13.43
   7   5  -3  451.21   13.68
  -7   5   3  404.95   13.61
   5  -5  -3   10.71    0.53
  -5  -5   3   11.70    0.75
  -5  -5   3   11.45    0.77
  -5  -5   3   10.79    0.43
   5   5  -3   10.46    0.75
  -5   5   3   10.11    0.54
   5   5  -3   10.04    0.59
   5   5  -3    9.82    0.79
  -3  -5   3  207.45    6.60
   3  -5  -3  203.76    6.52
  -3  -5   3  230.78    6.74
  -3  -5   3  208.00    6.74
  -3  -5   3  223.40    6.58
  -3  -5   3  213.74    6.80
  -3  -5   3  206.47    6.46
   3  -5  -3  205.14    6.53
   3   5  -3  227.07    6.81
   3   5  -3  217.89    6.81
  -3   5   3  219.95    6.54
   3   5  -3  214.53    6.60
   3   5  -3  221.27    6.45
  -3   5   3  219.70    6.53
   3   5  -3  205.93    6.59
   1  -5  -3  374.91   11.41
  -1  -5   3  362.29   11.42
  -1  -5   3  380.11   11.68
  -1  -5   3  378.31   11.44
   1  -5  -3  357.92   11.42
  -1  -5   3  405.39   11.61
  -1  -5   3  391.82   11.46
  -1   5   3  373.00   11.43
   1   5  -3  403.27   11.71
  -1   5   3  374.27   11.40
  -1   5   3  374.21   11.44
   1   5  -3  398.04   11.50
   1   5  -3  400.29   11.64
   1   5  -3  366.73   11.61
  -1   5   3  392.11   11.42
   1   5  -3  384.74   11.37
  -1   5   3  398.23   11.33
   1   5  -3  353.56   11.47
   1  -5   3  916.60   26.95
   1  -5   3  890.42   26.70
   1  -5   3  872.69   26.79
  -1  -5  -3  860.42   26.70
  -1  -5  -3  905.92   26.67
   1  -5   3  901.82   26.57
  -1  -5  -3  920.20   26.54
  -1  -5  -3  858.13   27.00
  -1  -5  -3  926.74   26.58
   1  -5   3  862.47   26.81
  -1   5  -3  933.38   26.58
  -1   5  -3  926.23   26.84
   1   5   3  946.53   26.83
  -1   5  -3  904.60   26.55
   1   5   3  881.62   26.77
   1   5   3  898.56   26.56
   1   5   3  889.07   26.73
  -1   5  -3  848.09   26.73
  -1   5  -3  908.23   26.64
  -1   5  -3  847.12   27.03
   3  -5   3    7.64    0.45
   3  -5   3    7.67    0.58
  -3  -5  -3    7.14    0.41
  -3  -5  -3    7.94    0.51
   3  -5   3    8.27    0.40
   3  -5   3    7.60    0.58
  -3  -5  -3    7.67    0.39
  -3  -5  -3    7.42    0.39
   3  -5   3    8.04    0.43
   3   5   3    8.73    0.47
   3   5   3    9.21    0.60
   3   5   3    7.99    0.46
  -3   5  -3    8.85    0.46
  -3   5  -3    7.74    0.70
  -3   5  -3    7.30    0.53
  -3   5  -3    8.62    0.42
  -3   5  -3    7.15    0.43
  -3   5  -3    8.22    0.48
  -5  -5  -3  228.56    7.44
   5  -5   3  236.21    7.39
  -5  -5  -3  241.91    7.63
  -5  -5  -3  256.91    7.57
   5  -5   3  228.48    7.48
  -5  -5  -3  248.36    7.32
   5  -5   3  257.84    7.42
  -5   5  -3  217.46    7.75
   5   5   3  239.12    7.52
  -5   5  -3  261.66    7.57
  -5   5  -3  243.80    7.47
   5   5   3  264.84    7.75
  -5   5  -3  245.14    7.40
  -7  -5  -3  196.84    6.18
  -7  -5  -3  198.42    6.41
   7  -5   3  188.86    6.20
  -7  -5  -3  199.31    6.19
  -7  -5  -3  207.90    6.13
   7  -5   3  203.69    6.09
   7  -5   3  180.02    6.18
  -7   5  -3  207.29    6.41
   7   5   3  184.88    6.27
   7   5   3  215.15    6.53
  -7   5  -3  193.96    6.18
  -9  -5  -3  268.84    8.31
   9  -5   3  266.80    8.47
  -9  -5  -3  276.42    8.43
   9  -5   3  262.50    8.27
  -9  -5  -3  280.25    8.42
  -9  -5  -3  269.54    8.70
   9   5   3  269.35    8.52
  -9   5  -3  273.54    8.38
  -9   5  -3  270.52    8.64
 -11  -5  -3   11.70    1.12
 -11  -5  -3   11.84    0.80
 -11  -5  -3   12.29    0.68
 -11   5  -3   10.99    0.96
 -11   5  -3   11.74    0.74
 -13  -5  -3  100.15    3.54
 -13  -5  -3  101.36    3.69
 -13  -5  -3   97.32    3.96
 -13  -5  -3   98.43    3.35
 -13   5  -3   98.72    3.83
 -13   5  -3   98.02    3.46
 -15  -5  -3  176.24    5.65
 -15  -5  -3  178.90    6.11
 -15  -5  -3  176.77    6.41
 -15  -5  -3  169.02    5.87
 -15   5  -3  174.79    5.96
 -15   5  -3  169.74    6.23
 -17  -5  -3   51.97    3.14
 -17  -5  -3   51.45    2.73
 -17  -5  -3   44.36    2.56
 -17  -5  -3   46.64    1.97
 -17   5  -3   42.34    3.12
 -17   5  -3   50.36    2.19
 -19  -5  -3   25.64    3.02
 -19  -5  -3   24.78    2.62
 -19  -5  -3   21.95    1.87
 -19  -5  -3   22.16    1.35
  19   5   3   21.58    1.45
 -19   5  -3   22.98    1.59
 -19   5  -3   17.60    2.09
 -21  -5  -3   40.76    4.06
 -21  -5  -3   40.87    2.02
 -21  -5  -3   39.79    2.35
 -21   5  -3   40.59    3.05
  21   5   3   39.59    2.11
 -21   5  -3   41.49    2.44
 -22  -6   3   48.17    2.90
 -22  -6   3   58.64    4.28
 -22  -6   3   58.88    4.28
  22   6  -3   59.80    2.68
 -22   6   3   52.31    4.06
 -22   6   3   56.59    3.35
 -20  -6   3   55.91    3.62
 -20  -6   3   53.35    3.69
 -20  -6   3   49.10    2.63
 -20   6   3   52.61    2.99
  20   6  -3   51.80    2.39
 -18  -6   3   40.94    2.81
 -18  -6   3   36.83    2.84
 -18  -6   3   35.89    2.01
  18   6  -3   36.94    1.87
 -18   6   3   37.77    1.90
 -18   6   3   38.93    2.27
 -16  -6   3    2.52    0.54
 -16  -6   3    3.02    0.94
 -16  -6   3    3.83    1.00
 -16  -6   3    2.36    0.39
 -16   6   3    2.13    0.65
  16   6  -3    2.97    1.13
 -16   6   3    3.77    0.62
  16   6  -3    2.87    0.52
 -14  -6   3  194.09    6.93
 -14  -6   3  194.71    6.91
 -14  -6   3  203.03    6.07
 -14  -6   3  199.01    6.52
 -14   6   3  197.21    6.24
  14   6  -3  191.99    6.39
  14   6  -3  194.30    6.84
 -14   6   3  193.01    6.56
 -12  -6   3   95.83    3.39
 -12  -6   3  103.62    3.96
 -12  -6   3  103.49    3.60
 -12  -6   3  104.08    3.95
 -12   6   3  101.54    3.59
 -12   6   3   99.77    3.33
  12   6  -3  100.48    3.53
 -10  -6   3   17.06    1.23
 -10  -6   3   14.32    0.91
 -10  -6   3   18.19    1.23
 -10  -6   3   16.26    0.69
 -10   6   3   16.43    0.90
  10   6  -3   17.58    0.93
 -10   6   3   16.26    0.73
  10   6  -3   15.71    1.23
  -8  -6   3   14.68    0.60
  -8  -6   3   14.67    0.82
  -8  -6   3   13.51    1.02
   8  -6  -3   15.15    0.74
  -8   6   3   14.76    0.59
  -8   6   3   14.06    0.69
   8   6  -3   13.89    1.01
   8   6  -3   13.84    0.79
  -6  -6   3   85.41    2.80
  -6  -6   3   82.43    3.00
  -6  -6   3   78.14    3.19
   6  -6  -3   81.15    2.70
  -6  -6   3   83.10    2.58
  -6   6   3   84.38    2.51
  -6   6   3   76.67    2.65
   6   6  -3   82.68    3.00
   6   6  -3   85.26    2.79
  -4  -6   3  176.51    5.72
  -4  -6   3  174.51    5.69
  -4  -6   3  168.87    5.52
   4  -6  -3  174.64    5.44
   4  -6  -3  170.93    5.46
  -4  -6   3  174.80    5.35
   4   6  -3  175.60    5.72
   4   6  -3  179.76    5.71
  -4   6   3  173.08    5.29
   4   6  -3  193.70    5.35
  -2  -6   3   84.49    2.71
   2  -6  -3   82.23    2.69
  -2  -6   3   79.60    2.64
  -2  -6   3   82.35    2.69
  -2  -6   3   82.20    2.85
  -2  -6   3   83.26    2.69
   2  -6  -3   85.64    2.69
  -2  -6   3   81.73    2.92
  -2   6   3   83.72    2.68
   2   6  -3   88.18    2.62
  -2   6   3   81.79    2.61
  -2   6   3   89.33    2.55
   2   6  -3   80.14    2.89
   2   6  -3   82.85    2.95
   2   6  -3   85.23    2.75
  -2   6   3   82.68    2.66
   2   6  -3   85.67    2.91
   0  -6   3   15.73    0.65
   0  -6  -3   15.15    0.67
   0  -6   3   16.48    0.69
   0  -6   3   15.44    0.66
   0  -6  -3   15.89    0.65
   0  -6   3   14.63    0.83
   0  -6   3   15.82    0.85
   0   6   3   15.19    0.66
   0   6  -3   16.04    0.64
   0   6  -3   15.34    0.93
   0   6  -3   15.91    0.85
   0   6   3   15.58    0.65
   0   6  -3   15.97    0.70
   0   6  -3   16.01    0.84
   0   6   3   17.26    0.63
   0   6   3   16.06    0.61
   0   6   3   16.11    0.71
  -2  -6  -3  248.77    7.93
  -2  -6  -3  278.76    8.01
  -2  -6  -3  252.15    7.97
   2  -6   3  260.23    7.95
  -2  -6  -3  282.48    7.98
  -2  -6  -3  254.60    7.87
   2  -6   3  257.33    7.94
   2  -6   3  256.66    8.20
   2  -6   3  276.90    7.96
  -2   6  -3  257.74    7.95
   2   6   3  273.36    8.14
  -2   6  -3  279.07    7.96
  -2   6  -3  260.68    7.95
   2   6   3  266.75    7.96
  -2   6  -3  253.35    8.15
  -2   6  -3  253.85    8.00
   2   6   3  250.64    7.96
  -4  -6  -3  475.45   14.88
   4  -6   3  489.67   14.89
   4  -6   3  482.82   14.92
  -4  -6  -3  476.20   14.91
  -4  -6  -3  519.26   15.08
   4  -6   3  498.49   14.88
  -4  -6  -3  489.59   14.89
  -4  -6  -3  528.07   14.99
   4   6   3  471.30   14.95
  -4   6  -3  535.04   14.98
  -4   6  -3  492.10   15.14
   4   6   3  511.17   15.18
  -4   6  -3  498.61   14.95
  -6  -6  -3   15.67    0.73
  -6  -6  -3   16.31    0.65
  -6  -6  -3   15.30    0.76
   6  -6   3   15.87    0.71
  -6  -6  -3   15.83    0.92
   6  -6   3   16.12    0.72
  -6  -6  -3   16.28    0.95
   6  -6   3   14.70    0.76
  -6   6  -3   15.56    0.76
   6   6   3   16.21    1.05
   6   6   3   14.33    0.78
  -6   6  -3   17.12    0.91
  -6   6  -3   15.73    0.91
   8  -6   3   74.32    2.44
   8  -6   3   71.95    2.59
  -8  -6  -3   72.12    2.81
  -8  -6  -3   74.12    2.49
  -8  -6  -3   75.72    2.51
  -8  -6  -3   70.77    2.55
   8  -6   3   75.76    2.48
   8   6   3   74.99    2.96
   8   6   3   73.63    2.64
  -8   6  -3   74.04    2.77
  -8   6  -3   72.34    2.53
 -10  -6  -3   75.25    3.04
 -10  -6  -3   77.33    2.74
 -10  -6  -3   76.60    2.72
  10  -6   3   74.94    2.55
 -10  -6  -3   76.11    2.60
 -10   6  -3   77.05    2.95
 -10   6  -3   75.56    2.67
 -12  -6  -3   62.80    2.26
 -12  -6  -3   62.66    2.51
 -12  -6  -3   62.11    2.85
 -12  -6  -3   61.60    2.42
 -12   6  -3   62.04    2.67
 -12   6  -3   64.38    2.36
 -14  -6  -3   30.48    1.34
 -14  -6  -3   27.89    2.04
 -14  -6  -3   31.76    1.77
 -14  -6  -3   29.47    1.53
 -14   6  -3   28.85    1.43
 -14   6  -3   29.51    1.82
 -16  -6  -3    2.01    0.42
 -16  -6  -3    1.49    1.10
 -16  -6  -3    2.43    0.94
 -16  -6  -3    2.35    0.60
 -16   6  -3    1.06    0.74
 -16   6  -3    1.66    0.51
 -18  -6  -3   25.80    2.85
 -18  -6  -3   22.30    1.59
 -18  -6  -3   21.96    1.34
 -18  -6  -3   29.49    2.39
 -18   6  -3   21.61    1.96
  18   6   3   24.43    1.47
 -18   6  -3   22.64    2.07
 -20  -6  -3  138.45    5.37
 -20  -6  -3  152.44    5.03
 -20  -6  -3  145.88    7.06
 -20   6  -3  150.56    5.34
 -20   6  -3  141.85    5.96
  20   6   3  146.84    5.19
 -21  -7   3    5.10    1.10
 -21  -7   3    4.56    2.02
 -21  -7   3    9.40    2.24
  21   7  -3    5.04    0.95
 -21   7   3    7.21    1.36
 -19  -7   3   45.11    2.42
 -19  -7   3   42.68    3.30
 -19  -7   3   49.12    3.46
  19   7  -3   47.51    2.22
 -19   7   3   44.36    2.62
 -17  -7   3  105.78    4.65
 -17  -7   3  109.74    3.50
 -17  -7   3   99.51    3.94
 -17  -7   3   95.06    4.46
  17   7  -3   99.80    3.79
 -17   7   3  108.67    3.74
 -17   7   3  100.47    4.07
 -15  -7   3   69.06    2.86
 -15  -7   3   73.23    2.43
 -15  -7   3   72.98    3.36
 -15  -7   3   69.91    3.39
 -15   7   3   72.63    2.63
  15   7  -3   72.83    3.40
  15   7  -3   70.39    2.77
 -15   7   3   69.64    2.94
 -13  -7   3   -0.06    0.61
 -13  -7   3   -0.01    0.23
 -13  -7   3    0.92    0.72
 -13  -7   3   -0.18    0.34
  13   7  -3    0.07    0.29
 -13   7   3    0.47    0.43
  13   7  -3    1.08    0.67
 -11  -7   3   26.56    1.63
 -11  -7   3   28.22    1.71
 -11  -7   3   25.32    1.31
 -11   7   3   26.81    1.08
  11   7  -3   25.77    1.28
  11   7  -3   26.09    1.66
 -11   7   3   27.24    1.28
  -9  -7   3  209.45    7.08
  -9  -7   3  212.95    6.79
   9  -7  -3  214.68    6.67
  -9  -7   3  208.28    7.03
  -9  -7   3  209.62    6.47
  -9   7   3  212.08    6.62
  -9   7   3  218.94    6.47
   9   7  -3  213.95    6.77
   9   7  -3  212.02    7.07
  -7  -7   3  115.47    3.56
   7  -7  -3  112.44    3.70
  -7  -7   3  115.64    4.07
  -7  -7   3  112.61    4.01
  -7  -7   3  115.18    3.80
   7   7  -3  102.10    4.18
  -7   7   3  113.27    3.59
  -7   7   3  118.89    3.50
  -7   7   3  121.51    3.76
   7   7  -3  112.33    3.79
  -5  -7   3   33.24    1.17
   5  -7  -3   32.60    1.26
  -5  -7   3   33.69    1.34
  -5  -7   3   32.58    1.53
  -5   7   3   34.92    1.07
   5   7  -3   29.82    1.70
   5   7  -3   35.31    1.18
   5   7  -3   34.87    1.60
   5   7  -3   33.81    1.34
  -5   7   3   30.86    1.13
   3  -7  -3  117.62    3.77
  -3  -7   3  116.18    3.69
  -3  -7   3  118.31    3.77
   3  -7  -3  115.32    3.75
  -3  -7   3  120.77    4.04
  -3   7   3  117.04    3.66
   3   7  -3  120.91    3.67
   3   7  -3  120.77    3.83
   3   7  -3  121.00    4.03
  -3   7   3  116.61    3.71
  -3   7   3  122.63    3.59
   3   7  -3  118.89    4.03
  -3   7   3  114.69    3.65
  -1  -7   3  264.48    8.12
  -1  -7   3  270.57    8.05
  -1  -7   3  257.16    8.36
   1  -7  -3  258.06    8.11
   1  -7  -3  258.53    8.12
  -1  -7   3  255.53    8.09
  -1   7   3  280.98    8.02
   1   7  -3  291.94    8.40
   1   7  -3  270.13    8.06
  -1   7   3  281.05    8.10
  -1   7   3  266.33    8.04
  -1   7   3  268.79    8.12
   1   7  -3  263.70    8.17
   1   7  -3  248.77    8.41
   1  -7   3  182.39    6.25
  -1  -7  -3  193.53    6.18
   1  -7   3  205.31    6.10
   1  -7   3  200.30    6.43
   1  -7   3  212.71    6.17
  -1  -7  -3  200.10    6.16
  -1   7  -3  201.52    6.22
  -1   7  -3  200.84    6.43
   1   7   3  204.72    6.12
   1   7   3  213.49    6.15
   1   7   3  184.07    6.07
   1   7   3  211.21    6.31
  -3  -7  -3   22.10    0.91
  -3  -7  -3   22.20    0.93
   3  -7   3   20.84    0.90
  -3  -7  -3   21.98    0.84
   3  -7   3   21.11    0.86
   3  -7   3   22.21    0.88
  -3  -7  -3   22.56    1.01
  -3   7  -3   23.93    0.91
   3   7   3   21.16    0.88
  -3   7  -3   21.99    1.08
   3   7   3   23.27    1.11
  -3   7  -3   21.86    0.93
   5  -7   3   78.86    2.70
  -5  -7  -3   84.20    2.73
  -5  -7  -3   80.52    2.70
  -5  -7  -3   87.00    2.93
   5  -7   3   81.49    2.66
  -5  -7  -3   75.28    3.02
  -5  -7  -3   85.41    2.82
   5  -7   3   81.74    2.70
   5   7   3   88.67    3.07
  -5   7  -3   85.76    2.78
  -5   7  -3   79.92    2.76
   5   7   3   80.08    2.75
  -5   7  -3   82.35    2.94
   7  -7   3  205.37    6.63
  -7  -7  -3  215.73    6.89
   7  -7   3  214.55    6.51
  -7  -7  -3  214.31    6.60
  -7  -7  -3  214.34    6.64
   7  -7   3  206.40    6.57
  -7  -7  -3  218.19    6.47
   7   7   3  223.07    7.05
  -7   7  -3  207.60    6.62
  -7   7  -3  205.26    6.85
   9  -7   3  137.05    4.37
  -9  -7  -3  144.38    4.75
  -9  -7  -3  137.67    4.37
  -9  -7  -3  132.99    4.37
  -9  -7  -3  136.01    4.76
   9  -7   3  133.16    4.27
  -9   7  -3  128.64    4.67
  -9   7  -3  137.21    4.43
 -11  -7  -3    6.04    0.77
 -11  -7  -3    4.95    0.50
 -11  -7  -3    5.55    0.90
 -11  -7  -3    5.81    0.64
 -11   7  -3    5.86    0.80
 -11   7  -3    4.96    0.57
 -13  -7  -3   26.67    1.98
 -13  -7  -3   27.58    1.45
 -13  -7  -3   28.96    1.29
 -13  -7  -3   29.14    1.62
 -13   7  -3   28.69    1.38
 -13   7  -3   30.95    1.75
 -15  -7  -3   94.30    3.70
 -15  -7  -3   91.29    3.51
 -15  -7  -3   93.17    4.16
 -15  -7  -3   95.95    3.30
 -15   7  -3   92.80    3.42
 -15   7  -3   94.31    3.88
 -17  -7  -3   81.01    4.14
 -17  -7  -3   76.74    2.90
 -17  -7  -3   76.17    3.17
 -17  -7  -3   81.01    3.56
 -17   7  -3   75.51    3.06
 -17   7  -3   72.70    3.53
  17   7   3   76.28    3.03
 -19  -7  -3    4.26    0.92
 -19  -7  -3    3.99    1.15
 -19   7  -3    3.58    0.83
 -19   7  -3    3.52    1.16
  19   7   3    4.55    0.80
 -21  -7  -3   12.04    1.40
 -21  -7  -3    9.61    1.33
 -21   7  -3   11.52    1.79
 -21   7  -3   11.66    1.37
  21   7   3   10.28    1.47
 -20  -8   3   21.10    1.85
 -20  -8   3   17.70    2.66
 -20  -8   3   22.25    3.32
 -20   8   3   23.36    2.14
  20   8  -3   20.78    1.65
 -18  -8   3   -0.84    0.61
 -18  -8   3   -0.11    1.29
 -18   8   3    0.04    0.77
  18   8  -3    1.22    0.62
 -16  -8   3    1.74    0.40
 -16  -8   3    0.19    1.15
 -16  -8   3    1.81    0.61
 -16  -8   3    2.23    1.09
 -16   8   3    1.82    0.51
 -16   8   3    1.69    0.94
  16   8  -3    3.02    1.28
  16   8  -3    1.73    0.79
 -14  -8   3    6.03    1.02
 -14  -8   3    7.68    0.89
 -14  -8   3    7.17    0.58
 -14  -8   3    6.64    1.23
 -14   8   3    6.76    0.93
  14   8  -3    6.90    0.81
  14   8  -3    6.54    1.19
 -14   8   3    6.18    0.72
 -12  -8   3  139.87    5.11
 -12  -8   3  143.21    5.26
 -12  -8   3  143.01    4.42
 -12  -8   3  141.05    4.82
 -12   8   3  137.84    4.47
  12   8  -3  138.80    4.76
 -12   8   3  140.07    4.73
  12   8  -3  137.56    5.17
 -10  -8   3   26.35    1.04
 -10  -8   3   24.96    1.56
 -10  -8   3   25.94    1.31
 -10  -8   3   24.56    1.66
 -10   8   3   27.06    1.20
 -10   8   3   27.32    1.04
  10   8  -3   25.94    1.27
  10   8  -3   26.66    1.63
  -8  -8   3   79.61    2.61
  -8  -8   3   80.75    2.87
  -8  -8   3   77.84    3.07
   8  -8  -3   84.32    2.78
   8   8  -3   79.37    2.85
  -8   8   3   79.95    2.67
  -8   8   3   81.08    2.54
   8   8  -3   78.75    3.14
  -6  -8   3   57.48    2.35
   6  -8  -3   57.28    2.04
  -6  -8   3   55.89    1.92
  -6  -8   3   54.85    2.34
  -6  -8   3   54.12    2.10
  -6  -8   3   58.44    2.07
  -6   8   3   64.07    2.05
   6   8  -3   57.36    2.13
  -6   8   3   58.60    1.83
  -6   8   3   56.25    1.91
   6   8  -3   58.59    2.39
  -4  -8   3   38.28    1.44
   4  -8  -3   37.90    1.45
  -4  -8   3   38.36    1.37
  -4  -8   3   39.26    1.73
   4  -8  -3   38.94    1.44
  -4   8   3   37.90    1.33
   4   8  -3   37.82    1.75
  -4   8   3   37.91    1.36
   4   8  -3   37.93    1.50
  -4   8   3   39.25    1.25
   4   8  -3   43.32    1.78
  -4   8   3   37.01    1.33
   4   8  -3   37.11    1.36
  -2  -8   3    8.64    0.50
   2  -8  -3    8.15    0.51
  -2  -8   3    7.61    0.87
   2  -8  -3    8.97    0.53
  -2  -8   3    8.03    0.51
  -2  -8   3    8.51    0.46
  -2   8   3    9.08    0.41
  -2   8   3    9.29    0.52
   2   8  -3    9.20    0.74
  -2   8   3    9.98    0.60
  -2   8   3    9.55    0.45
   2   8  -3    9.57    0.58
  -2   8   3    9.08    0.44
  -2   8   3    9.01    0.50
   2   8  -3   10.00    0.81
   0  -8  -3   14.98    0.73
   0  -8   3   14.99    0.93
   0  -8  -3   15.71    0.72
   0  -8   3   15.09    0.74
   0  -8   3   15.42    0.61
   0  -8   3   15.04    0.71
   0   8  -3   15.24    0.75
   0   8  -3   18.08    0.99
   0   8   3   15.75    0.69
   0   8  -3   15.53    0.92
   0   8   3   15.70    0.80
   0   8   3   16.24    0.69
   0   8   3   15.56    0.61
   2  -8   3    5.49    0.34
   2  -8   3    5.76    0.46
  -2  -8  -3    4.90    0.39
   2  -8   3    4.52    0.58
   2  -8   3    5.26    0.40
  -2  -8  -3    5.33    0.40
  -2  -8  -3    5.59    0.40
   2   8   3    5.32    0.35
  -2   8  -3    5.01    0.54
   2   8   3    5.39    0.57
  -4  -8  -3   46.22    1.70
   4  -8   3   47.79    1.71
  -4  -8  -3   48.75    1.66
  -4  -8  -3   48.38    1.74
  -4  -8  -3   46.80    1.72
   4  -8   3   47.08    1.64
  -4  -8  -3   51.09    1.93
   4  -8   3   47.32    1.66
   4   8   3   50.52    2.02
  -4   8  -3   45.94    1.91
   4   8   3   48.29    1.69
  -4   8  -3   50.15    1.70
  -4   8  -3   46.78    1.76
  -6  -8  -3  134.67    4.39
   6  -8   3  137.85    4.30
  -6  -8  -3  138.71    4.63
  -6  -8  -3  139.25    4.39
   6  -8   3  138.87    4.39
  -6  -8  -3  135.85    4.48
   6  -8   3  131.40    4.35
  -6  -8  -3  139.30    4.40
   6   8   3  134.49    4.43
   6   8   3  145.84    4.83
  -6   8  -3  140.29    4.45
  -6   8  -3  136.76    4.64
  -6   8  -3  135.72    4.42
  -8  -8  -3    3.88    0.41
   8  -8   3    3.50    0.40
   8  -8   3    4.77    0.48
  -8  -8  -3    3.45    0.47
  -8  -8  -3    3.89    0.71
  -8  -8  -3    3.35    0.43
  -8   8  -3    3.21    0.42
   8   8   3    2.70    0.82
  -8   8  -3    4.35    0.65
 -10  -8  -3   81.92    2.88
 -10  -8  -3   85.22    2.88
  10  -8   3   82.03    2.89
 -10  -8  -3   83.33    2.99
 -10  -8  -3   85.30    3.39
 -10   8  -3   86.12    2.95
 -10   8  -3   83.11    3.24
 -12  -8  -3   18.87    1.26
 -12  -8  -3   18.09    1.79
 -12  -8  -3   17.67    1.11
 -12  -8  -3   17.87    0.96
 -12   8  -3   16.88    1.28
 -12   8  -3   18.96    1.07
 -14  -8  -3   44.45    2.07
 -14  -8  -3   48.18    2.23
 -14  -8  -3   47.67    1.90
 -14  -8  -3   48.26    2.79
 -14   8  -3   45.44    2.38
 -14   8  -3   46.84    2.00
 -16  -8  -3   -0.25    0.51
 -16  -8  -3   -0.11    0.42
 -16  -8  -3   -0.47    1.36
 -16   8  -3   -0.37    0.47
 -16   8  -3   -0.32    0.77
  16   8   3    0.58    0.44
 -18  -8  -3   38.86    1.87
 -18  -8  -3   38.97    2.15
 -18   8  -3   40.38    2.10
 -18   8  -3   38.29    2.64
  18   8   3   39.82    2.03
 -20  -8  -3   20.70    1.55
 -20  -8  -3   16.50    1.78
 -20   8  -3   16.67    2.36
  20   8   3   22.27    1.63
 -20   8  -3   22.60    1.84
 -19  -9   3   15.92    2.18
 -19  -9   3   18.20    2.46
 -19  -9   3   13.28    1.65
 -19   9   3   17.20    1.88
  19   9  -3   20.58    1.58
 -17  -9   3    2.84    1.32
 -17  -9   3    3.17    1.63
 -17  -9   3    3.75    0.79
  17   9  -3    5.65    0.82
 -17   9   3    5.03    0.93
 -15  -9   3    0.09    1.15
 -15  -9   3    0.55    0.65
 -15  -9   3    1.44    0.90
 -15  -9   3    1.76    0.39
 -15   9   3    2.69    0.71
  15   9  -3    1.64    1.13
 -13  -9   3   34.66    2.08
 -13  -9   3   33.41    1.28
 -13  -9   3   32.48    2.29
 -13  -9   3   31.81    1.63
 -13   9   3   29.11    1.69
  13   9  -3   27.97    1.54
  13   9  -3   29.91    2.11
 -11  -9   3    3.45    0.78
 -11  -9   3    2.89    0.87
 -11  -9   3    3.83    0.57
 -11  -9   3    2.82    0.35
 -11   9   3    3.53    0.45
 -11   9   3    3.76    0.51
  11   9  -3    5.43    0.94
  -9  -9   3   46.70    1.88
   9  -9  -3   44.52    1.76
  -9  -9   3   44.81    2.12
  -9  -9   3   42.27    2.20
  -9  -9   3   46.25    1.61
  -9   9   3   45.52    1.55
  -9   9   3   44.33    1.69
   9   9  -3   42.29    2.17
   9   9  -3   43.81    1.85
  -7  -9   3   57.67    2.21
   7  -9  -3   58.87    2.12
  -7  -9   3   58.42    2.52
  -7  -9   3   57.85    2.43
  -7  -9   3   57.08    1.99
  -7   9   3   62.98    2.14
   7   9  -3   57.71    2.50
  -7   9   3   57.02    2.00
   7   9  -3   58.40    2.22
  -7   9   3   57.86    1.89
  -5  -9   3    5.45    0.58
  -5  -9   3    5.93    0.77
   5  -9  -3    6.53    0.51
  -5  -9   3    6.86    0.51
  -5  -9   3    6.50    0.45
   5  -9  -3    6.92    0.53
  -5   9   3    6.07    0.41
  -5   9   3    6.42    0.35
   5   9  -3    4.88    0.71
   5   9  -3    6.40    0.55
  -5   9   3    7.26    0.50
  -3  -9   3   66.94    2.22
   3  -9  -3   68.58    2.38
  -3  -9   3   72.23    2.21
  -3  -9   3   67.25    2.36
  -3  -9   3   68.07    2.62
   3  -9  -3   67.19    2.35
  -3  -9   3   65.18    2.32
   3   9  -3   67.15    2.68
   3   9  -3   65.91    2.64
  -3   9   3   70.60    2.18
  -3   9   3   70.43    2.29
   3   9  -3   70.12    2.43
  -3   9   3   68.19    2.18
  -3   9   3   67.71    2.20
  -3   9   3   68.67    2.44
  -3   9   3   69.19    2.31
   1  -9  -3   83.03    2.81
   1  -9  -3   85.48    2.84
  -1  -9   3   80.07    3.05
  -1  -9   3   85.00    2.61
  -1  -9   3   83.24    2.81
  -1  -9   3   83.60    2.82
   1   9  -3   89.59    3.13
  -1   9   3   85.44    2.83
  -1   9   3   86.06    2.88
   1   9  -3   80.76    2.85
  -1   9   3   88.16    2.71
  -1   9   3   89.09    2.83
   1   9  -3   79.90    3.06
  -1  -9  -3   18.54    0.86
   1  -9   3   18.70    0.85
   1  -9   3   17.44    0.85
   1  -9   3   18.00    1.08
  -1  -9  -3   20.20    0.85
   1   9   3   19.54    0.76
  -1   9  -3   18.07    1.04
   1   9   3   18.04    0.68
  -1   9  -3   18.48    0.87
   1   9   3   19.04    1.01
  -1   9  -3   18.52    1.12
   3  -9   3    1.28    0.24
   3  -9   3    1.90    0.29
  -3  -9  -3    1.17    0.25
  -3  -9  -3    1.30    0.26
  -3  -9  -3    1.54    0.30
  -3  -9  -3    1.44    0.36
   3  -9   3    1.50    0.21
   3   9   3    1.48    0.23
   3   9   3    1.95    0.44
  -3   9  -3    1.12    0.35
  -3   9  -3    1.27    0.26
  -5  -9  -3   39.43    1.56
  -5  -9  -3   40.52    1.51
  -5  -9  -3   38.11    1.51
   5  -9   3   38.67    1.49
  -5  -9  -3   38.49    1.45
   5  -9   3   39.82    1.43
  -5   9  -3   41.13    1.49
   5   9   3   40.75    1.89
  -5   9  -3   38.45    1.72
  -5   9  -3   37.65    1.51
  -7  -9  -3   64.35    2.31
   7  -9   3   64.69    2.30
  -7  -9  -3   63.89    2.60
  -7  -9  -3   66.98    2.32
   7  -9   3   65.94    2.18
  -7  -9  -3   64.97    2.31
   7   9   3   66.96    2.85
  -7   9  -3   64.79    2.59
  -7   9  -3   64.65    2.40
  -7   9  -3   66.28    2.34
  -9  -9  -3   53.89    2.44
  -9  -9  -3   52.96    1.98
   9  -9   3   53.16    1.99
  -9  -9  -3   54.11    1.83
  -9  -9  -3   52.66    2.05
  -9   9  -3   50.18    2.26
  -9   9  -3   54.24    2.03
 -11  -9  -3    8.09    1.13
 -11  -9  -3    6.86    0.75
 -11  -9  -3    6.45    0.80
 -11  -9  -3    6.86    0.60
  11  -9   3    5.69    0.60
 -11   9  -3    6.15    0.86
 -11   9  -3    6.36    0.67
 -13  -9  -3   10.21    0.95
 -13  -9  -3   11.22    1.50
 -13  -9  -3   10.35    0.78
 -13   9  -3   10.23    0.89
 -13   9  -3    9.23    1.16
 -15  -9  -3   60.14    2.42
 -15  -9  -3   62.23    2.67
 -15   9  -3   67.57    2.62
  15   9   3   64.26    2.63
 -15   9  -3   62.70    3.03
 -17  -9  -3    4.67    0.89
 -17  -9  -3    4.21    0.69
  17   9   3    3.56    0.89
 -17   9  -3    4.75    1.16
 -17   9  -3    2.71    0.84
 -19  -9  -3    8.05    1.17
 -19  -9  -3   10.68    1.22
 -19   9  -3   11.65    1.54
 -19   9  -3    6.59    1.42
  19   9   3   11.34    1.32
 -20 -10   3    1.48    1.02
  20  10  -3    0.86    0.90
 -20  10   3    2.00    1.18
 -18 -10   3    2.11    0.80
 -18 -10   3    0.71    1.56
 -18 -10   3    3.92    2.09
 -18  10   3    0.22    0.86
  18  10  -3    2.40    0.76
 -16 -10   3    2.84    1.56
 -16 -10   3    1.24    0.63
 -16 -10   3   -0.51    1.11
 -16  10   3    0.60    0.69
  16  10  -3   -2.05    1.37
  16  10  -3    1.01    0.60
 -14 -10   3    3.44    1.04
 -14 -10   3    4.05    1.27
 -14 -10   3    4.34    0.61
 -14  10   3    3.63    0.71
  14  10  -3    3.38    1.14
 -12 -10   3    2.84    0.99
 -12 -10   3    0.58    0.30
 -12 -10   3    1.64    0.75
 -12 -10   3    0.48    0.44
  12  10  -3    2.58    0.95
 -12  10   3    1.28    0.37
  12  10  -3    0.91    0.43
 -12  10   3    1.79    0.49
  10 -10  -3    4.12    0.56
 -10 -10   3    4.83    0.82
 -10 -10   3    3.80    0.89
 -10 -10   3    4.96    0.70
 -10 -10   3    4.86    0.48
 -10  10   3    4.35    0.58
 -10  10   3    4.58    0.47
  10  10  -3    4.04    0.60
  10  10  -3    3.40    0.76
  -8 -10   3    0.88    1.15
   8 -10  -3    0.22    0.22
  -8 -10   3    0.25    0.30
  -8 -10   3   -0.52    0.44
  -8 -10   3    0.08    0.21
   8  10  -3    0.56    0.53
  -8  10   3    0.05    0.20
  -8  10   3    0.40    0.26
   8  10  -3    0.38    0.30
  -6 -10   3    1.51    0.30
  -6 -10   3    1.68    0.51
   6 -10  -3    1.53    0.30
  -6 -10   3    1.52    0.43
  -6 -10   3    1.55    0.27
  -6  10   3    2.17    0.29
   6  10  -3    1.59    0.36
  -6  10   3    2.49    0.37
  -6  10   3    1.53    0.26
   6  10  -3    2.36    0.58
   4 -10  -3    1.41    0.29
  -4 -10   3    1.89    0.31
   4 -10  -3    1.99    0.35
  -4 -10   3    1.25    0.43
  -4 -10   3    1.51    0.26
  -4 -10   3    2.50    0.34
  -4 -10   3    1.96    0.29
   4  10  -3    2.13    0.38
  -4  10   3    1.99    0.27
  -4  10   3    1.83    0.23
  -4  10   3    2.71    0.35
  -4  10   3    2.18    0.25
  -4  10   3    1.75    0.33
   4  10  -3    2.62    0.55
  -2 -10   3    4.59    0.43
  -2 -10   3    3.37    0.39
   2 -10  -3    3.63    0.41
  -2 -10   3    3.79    0.58
   2 -10  -3    4.24    0.44
   2  10  -3    3.60    0.65
  -2  10   3    3.62    0.42
   2  10  -3    3.28    0.44
  -2  10   3    3.28    0.32
   2  10  -3    3.88    0.61
  -2  10   3    3.60    0.49
  -2  10   3    3.62    0.48
   0 -10   3   12.92    0.97
   0 -10  -3   12.66    0.71
   0 -10  -3   11.84    0.71
   0 -10   3   13.48    0.72
   0  10   3   13.33    0.65
   0  10   3   12.86    0.77
   0  10  -3   15.30    1.00
   0  10   3   13.83    0.74
   0  10  -3   12.79    0.74
   0  10  -3   13.94    1.07
   0  10   3   13.75    0.86
  -2 -10  -3    1.26    0.25
   2 -10   3    1.89    0.30
   2 -10   3    2.34    0.37
  -2 -10  -3    2.33    0.35
  -2  10  -3    1.86    0.32
   2  10   3    1.57    0.35
  -2  10  -3    2.72    0.60
  -2  10  -3    2.03    0.44
   2  10   3    2.39    0.33
   2  10   3    2.43    0.47
  -4 -10  -3    6.99    0.81
  -4 -10  -3    7.02    0.59
  -4 -10  -3    6.57    0.53
   4 -10   3    6.56    0.51
  -4 -10  -3    6.37    0.52
   4 -10   3    6.17    0.55
   4  10   3    6.96    0.94
  -4  10  -3    6.19    0.69
  -4  10  -3    6.40    0.54
  -6 -10  -3    1.06    0.30
  -6 -10  -3    0.81    0.28
  -6 -10  -3    1.14    0.50
  -6 -10  -3    1.11    0.30
   6 -10   3    0.84    0.25
   6 -10   3    0.89    0.29
  -6  10  -3    0.75    0.37
   6  10   3    2.58    0.70
  -6  10  -3    0.98    0.38
  -6  10  -3    0.92    0.25
  -8 -10  -3    1.88    0.31
  -8 -10  -3    1.79    0.74
  -8 -10  -3    1.36    0.38
   8 -10   3    1.82    0.33
  -8 -10  -3    1.96    0.36
  -8  10  -3    2.36    0.39
  -8  10  -3    2.11    0.50
 -10 -10  -3    0.64    0.36
 -10 -10  -3    1.93    0.82
  10 -10   3    0.49    0.28
 -10 -10  -3    0.23    0.27
 -10  10  -3    0.34    0.41
 -10  10  -3   -0.11    0.29
 -12 -10  -3    0.49    0.41
 -12 -10  -3    0.32    0.34
 -12  10  -3    0.68    0.39
  12  10   3    1.32    0.43
 -12  10  -3    0.67    0.54
 -14 -10  -3    2.02    0.47
 -14 -10  -3    0.17    0.83
 -14  10  -3    0.82    0.68
 -14  10  -3    0.88    0.50
  14  10   3    1.05    0.49
 -16 -10  -3    3.51    0.76
 -16 -10  -3    3.32    0.64
 -16  10  -3    3.53    1.00
 -16  10  -3    3.22    0.79
  16  10   3    4.31    0.72
 -18 -10  -3   -0.12    0.79
 -18 -10  -3    1.26    0.66
  18  10   3   -1.20    1.39
 -18  10  -3   -1.30    1.02
  18  10   3    0.20    0.62
 -18  10  -3    2.25    0.85
 -19 -11   3   -1.14    0.91
 -19  11   3    2.24    1.05
  19  11  -3   -1.54    0.79
 -17 -11   3    5.43    0.99
 -17 -11   3   12.61    2.33
 -17  11   3    8.11    1.14
  17  11  -3    6.21    0.93
 -15 -11   3    0.69    1.22
 -15 -11   3    1.60    1.49
 -15 -11   3    0.11    0.59
  15  11  -3    1.36    1.25
 -15  11   3    0.13    0.64
  15  11  -3   -0.38    0.52
 -13 -11   3   37.84    1.51
 -13 -11   3   35.84    2.38
 -13 -11   3   37.24    2.75
 -13 -11   3   32.79    2.32
  13  11  -3   38.97    2.58
  13  11  -3   32.27    1.92
 -13  11   3   37.62    1.80
 -11 -11   3   13.09    1.52
 -11 -11   3   14.99    0.82
 -11 -11   3   11.84    1.77
 -11 -11   3   13.75    1.07
  11 -11  -3   12.98    0.94
  11  11  -3   14.36    1.07
  11  11  -3   12.10    1.55
 -11  11   3   14.39    0.95
  -9 -11   3   25.59    1.66
   9 -11  -3   25.36    1.26
  -9 -11   3   25.96    1.14
  -9 -11   3   25.58    1.36
  -9 -11   3   26.62    1.94
  -9  11   3   25.86    1.19
   9  11  -3   24.05    1.72
  -9  11   3   25.82    1.05
   9  11  -3   26.36    1.38
   7 -11  -3   10.81    0.73
  -7 -11   3    8.66    0.70
  -7 -11   3    8.66    0.62
  -7 -11   3    8.89    1.06
  -7  11   3    9.54    0.63
   7  11  -3    9.40    0.78
   7  11  -3    8.96    1.10
  -7  11   3    9.07    0.54
  -7  11   3   10.07    0.62
   5 -11  -3    3.08    0.42
  -5 -11   3    3.31    0.44
  -5 -11   3    3.99    0.49
  -5 -11   3    3.18    0.47
  -5 -11   3    4.27    0.69
   5 -11  -3    4.01    0.50
   5  11  -3    4.20    0.56
   5  11  -3    3.66    0.70
  -5  11   3    4.02    0.45
  -5  11   3    4.44    0.53
  -5  11   3    4.74    0.38
   3 -11  -3    3.77    0.48
  -3 -11   3    4.36    0.46
  -3 -11   3    3.33    0.60
  -3 -11   3    4.17    0.47
   3 -11  -3    3.92    0.48
   3  11  -3    3.64    0.51
  -3  11   3    3.71    0.50
  -3  11   3    3.80    0.35
  -3  11   3    4.25    0.48
   3  11  -3    3.66    0.80
   3  11  -3    5.49    0.78
  -1 -11   3   22.00    1.03
   1 -11  -3   21.08    1.02
  -1 -11   3   21.59    1.29
   1 -11  -3   21.32    1.04
  -1  11   3   21.30    0.92
   1  11  -3   23.60    1.09
  -1  11   3   22.08    1.12
  -1  11   3   22.18    1.06
  -1  11   3   21.26    1.15
   1  11  -3   22.37    1.46
   1  11  -3   21.14    1.29
  -1 -11  -3   -0.06    0.22
  -1 -11  -3    0.23    0.21
   1 -11   3    0.74    0.26
   1  11   3    0.24    0.40
   1  11   3    0.87    0.28
   1  11   3    0.51    0.31
  -1  11  -3    0.53    0.24
  -1  11  -3    0.24    0.33
  -1  11  -3    0.09    0.53
  -3 -11  -3    1.22    0.30
  -3 -11  -3    1.50    0.30
   3 -11   3    1.35    0.31
  -3  11  -3    1.31    0.31
   3  11   3    0.98    0.87
  -3  11  -3    2.09    0.48
  -3  11  -3    1.47    0.60
   3  11   3    1.28    0.29
   3  11   3    1.03    0.36
  -5 -11  -3   16.01    0.88
  -5 -11  -3   15.97    1.51
   5 -11   3   16.65    0.88
  -5 -11  -3   16.53    0.89
   5  11   3   16.13    1.92
   5  11   3   15.24    1.08
  -5  11  -3   17.04    1.12
  -5  11  -3   15.23    0.88
   5  11   3   15.74    0.88
  -7 -11  -3   12.31    0.79
  -7 -11  -3   11.51    0.78
   7 -11   3   12.10    0.77
  -7 -11  -3   11.47    0.76
  -7  11  -3   10.72    0.96
   7  11   3   11.72    0.80
  -7  11  -3   10.98    0.78
  -9 -11  -3    2.50    0.41
   9 -11   3    2.69    0.45
  -9 -11  -3    2.09    0.45
  -9 -11  -3    1.90    0.46
   9  11   3    2.41    0.46
  -9  11  -3    1.92    0.41
  -9  11  -3    2.87    0.56
 -11 -11  -3    1.87    0.46
 -11 -11  -3    1.86    0.50
  11 -11   3    1.85    0.40
 -11 -11  -3    1.88    0.43
 -11  11  -3    1.89    0.46
 -11  11  -3    1.36    0.59
  11  11   3    2.24    0.45
 -13 -11  -3    3.51    0.54
 -13 -11  -3    3.92    0.69
  13  11   3    4.10    0.71
 -13  11  -3    4.23    0.70
 -13  11  -3    4.94    0.87
  13  11   3    4.81    1.00
 -15 -11  -3    6.33    0.91
 -15 -11  -3    6.48    0.78
  15  11   3    8.88    1.08
  15  11   3    8.49    1.45
 -15  11  -3    7.88    1.11
 -15  11  -3    7.07    1.20
 -17 -11  -3    1.50    0.64
 -17 -11  -3    1.13    0.85
 -17  11  -3    1.41    0.79
  17  11   3    1.10    0.65
  17  11   3    2.95    1.65
 -17  11  -3    1.59    1.04
 -18 -12   3   -0.45    0.86
 -18  12   3   -0.21    0.95
  18  12  -3    1.37    0.80
 -16 -12   3    1.92    0.78
  16  12  -3   -0.02    0.64
 -16  12   3    1.44    0.82
 -14 -12   3    6.36    1.36
 -14 -12   3    7.59    1.13
  14  12  -3    7.26    1.06
  14  12  -3    6.90    1.58
 -14  12   3    7.28    1.12
 -12 -12   3   37.99    2.88
 -12 -12   3   41.98    2.43
 -12 -12   3   38.04    2.18
 -12 -12   3   40.53    1.65
 -12  12   3   38.73    1.83
  12  12  -3   39.34    1.95
  12  12  -3   42.14    2.63
 -10 -12   3   45.67    2.36
 -10 -12   3   40.98    1.86
 -10 -12   3   45.60    1.71
  10 -12  -3   43.04    1.88
  10  12  -3   40.61    2.40
  10  12  -3   39.74    1.94
 -10  12   3   43.38    1.80
   8 -12  -3    3.39    0.50
  -8 -12   3    3.10    0.77
  -8 -12   3    3.21    0.44
  -8 -12   3    3.72    0.54
   8  12  -3    2.75    0.53
  -8  12   3    3.62    0.51
  -8  12   3    3.61    0.55
  -8  12   3    4.19    0.53
   8  12  -3    2.99    0.77
  -8  12   3    3.84    0.47
  -6 -12   3   48.31    1.82
  -6 -12   3   47.63    1.68
  -6 -12   3   48.15    2.22
   6 -12  -3   48.32    1.91
  -6 -12   3   47.40    1.91
  -6  12   3   46.00    1.80
  -6  12   3   47.10    1.67
  -6  12   3   47.62    1.85
   6  12  -3   45.24    1.97
   6  12  -3   47.57    2.35
   4 -12  -3   98.01    3.41
  -4 -12   3   97.32    3.42
  -4 -12   3  100.00    3.36
  -4 -12   3   99.45    3.69
   4 -12  -3   99.13    3.45
  -4  12   3   97.96    3.36
  -4  12   3  100.93    3.21
  -4  12   3  101.25    3.43
   4  12  -3   99.46    3.84
   4  12  -3  100.82    3.51
   2 -12  -3   11.10    0.78
  -2 -12   3   11.30    0.75
  -2 -12   3   10.76    1.02
   2 -12  -3   10.68    0.73
  -2 -12   3   11.17    0.73
   2  12  -3   11.73    1.03
  -2  12   3   10.75    0.64
   2  12  -3   10.89    0.79
  -2  12   3   11.79    0.90
  -2  12   3   10.92    0.77
   0 -12   3   34.27    1.44
   0 -12  -3   33.19    1.43
   0 -12  -3   33.39    1.45
   0  12  -3   34.18    1.74
   0  12   3   32.36    1.50
   0  12   3   34.47    1.36
   0  12   3   34.28    1.64
   0  12  -3   34.36    1.48
  -2 -12  -3    8.81    0.68
   2 -12   3    9.07    0.67
  -2 -12  -3    9.23    0.69
   2  12   3    8.79    0.80
   2  12   3   10.73    1.06
  -2  12  -3    9.99    0.94
  -2  12  -3   10.78    0.74
   2  12   3   10.68    0.68
  -4 -12  -3   15.93    0.90
   4 -12   3   16.30    0.91
  -4 -12  -3   15.09    0.91
   4  12   3   14.80    1.07
  -4  12  -3   15.90    0.93
   4  12   3   17.37    0.92
  -4  12  -3   14.53    1.10
  -6 -12  -3   56.42    2.15
   6 -12   3   57.06    2.15
  -6 -12  -3   57.20    2.15
   6  12   3   55.75    2.16
  -6  12  -3   56.32    2.16
   6  12   3   54.22    2.41
  -6  12  -3   54.14    2.41
  -8 -12  -3    0.69    0.32
   8 -12   3    0.45    0.30
  -8 -12  -3    0.37    0.33
  -8 -12  -3   -0.01    0.35
   8  12   3    0.33    0.49
   8  12   3    0.89    0.35
  -8  12  -3   -0.07    0.34
  -8  12  -3    0.72    0.47
  10 -12   3   28.02    1.39
 -10 -12  -3   28.26    1.42
 -10 -12  -3   27.61    1.40
 -10 -12  -3   27.63    1.34
  10  12   3   27.17    1.44
 -10  12  -3   28.46    1.41
 -10  12  -3   27.58    1.72
  10  12   3   23.89    1.77
 -12 -12  -3   63.28    3.49
 -12 -12  -3   74.68    2.80
  12 -12   3   59.01    2.95
 -12 -12  -3   73.50    2.69
 -12  12  -3   80.41    2.81
 -12  12  -3   65.90    3.09
  12  12   3   70.30    3.59
  12  12   3   70.38    2.98
 -14 -12  -3   18.60    1.32
 -14 -12  -3   19.27    1.44
 -14 -12  -3   16.53    1.22
 -14  12  -3   20.23    1.41
  14  12   3   16.33    1.98
  14  12   3   16.90    1.32
 -14  12  -3   17.82    1.74
 -16 -12  -3    9.84    1.19
 -16 -12  -3   11.07    1.32
 -16 -12  -3   12.40    1.19
 -16  12  -3   10.05    1.43
  16  12   3   11.24    1.71
 -16  12  -3    9.67    1.43
  16  12   3    8.64    1.27
 -18 -12  -3   21.50    1.69
 -18 -12  -3   20.89    2.05
 -18 -12  -3   27.53    1.90
 -18  12  -3   27.38    2.74
  18  12   3   24.25    1.92
 -17 -13   3   35.57    2.36
  17  13  -3   38.54    2.27
 -17  13   3   38.60    2.25
 -15 -13   3   33.47    2.01
 -15 -13   3   27.07    1.71
  15  13  -3   37.95    3.22
  15  13  -3   30.03    1.89
 -15  13   3   30.96    1.91
 -13 -13   3    1.55    0.56
 -13 -13   3    0.77    0.63
 -13 -13   3    1.04    1.29
  13  13  -3    1.22    1.52
 -13  13   3    2.99    0.70
  13  13  -3    0.92    0.58
 -11 -13   3   68.02    2.40
  11 -13  -3   63.90    2.57
 -11 -13   3   62.77    2.57
 -11 -13   3   64.93    3.09
  11  13  -3   65.44    3.34
  11  13  -3   61.62    2.68
 -11  13   3   58.83    2.98
  -9 -13   3   69.45    2.73
  -9 -13   3   75.06    2.60
  -9 -13   3   75.08    3.12
   9 -13  -3   69.44    2.74
   9  13  -3   67.86    3.30
  -9  13   3   71.76    2.64
   9  13  -3   70.56    2.85
  -7 -13   3    4.85    0.63
   7 -13  -3    4.19    0.57
  -7 -13   3    4.02    0.85
  -7 -13   3    3.97    0.54
  -7  13   3    5.23    0.63
   7  13  -3    3.71    0.89
  -7  13   3    4.63    0.62
  -7  13   3    4.08    0.60
   7  13  -3    3.76    0.62
  -5 -13   3    2.60    0.45
  -5 -13   3    2.76    0.45
  -5 -13   3    2.41    0.67
   5 -13  -3    1.65    0.37
   5  13  -3    2.50    0.48
  -5  13   3    2.62    0.51
  -5  13   3    1.97    0.41
  -5  13   3    2.40    0.37
   5  13  -3    3.16    0.77
  -3 -13   3    3.75    0.49
  -3 -13   3    3.07    0.67
   3 -13  -3    2.39    0.46
   3 -13  -3    2.64    0.45
  -3 -13   3    2.57    0.43
  -3  13   3    2.95    0.42
   3  13  -3    3.29    0.52
  -3  13   3    5.53    0.80
   3  13  -3    2.74    0.68
  -3  13   3    3.58    0.51
  -1 -13   3   89.28    3.20
   1 -13  -3   90.12    3.20
   1 -13  -3   92.05    3.25
   1  13  -3   92.69    3.28
  -1  13   3   95.30    3.65
  -1  13   3   90.26    3.28
   1  13  -3   90.15    3.59
  -1  13   3   93.21    3.08
  -1 -13  -3   72.05    2.67
   1 -13   3   74.33    2.66
  -1 -13  -3   73.82    2.65
   1  13   3   72.43    2.56
  -1  13  -3   72.23    2.69
  -1  13  -3   70.84    2.97
   1  13   3   72.96    2.79
   3 -13   3   18.46    1.03
  -3 -13  -3   18.76    1.03
  -3 -13  -3   17.41    1.03
  -3  13  -3   20.37    1.09
   3  13   3   18.48    1.20
   3  13   3   19.12    1.01
  -3  13  -3   19.05    1.31
  -5 -13  -3   54.04    2.08
  -5 -13  -3   52.33    2.06
   5 -13   3   54.55    2.08
   5  13   3   51.92    2.35
   5  13   3   50.46    2.04
  -5  13  -3   52.39    2.09
  -5  13  -3   49.53    2.34
   7 -13   3  128.81    4.27
  -7 -13  -3  124.55    4.25
  -7 -13  -3  128.68    4.28
   7  13   3  123.59    4.62
  -7  13  -3  125.27    4.60
   7  13   3  117.91    4.26
  -7  13  -3  126.70    4.27
  -9 -13  -3   20.30    1.19
  -9 -13  -3   20.46    1.14
   9 -13   3   18.14    1.13
   9  13   3   20.19    1.61
  -9  13  -3   17.28    1.99
  -9  13  -3   19.65    1.18
   9  13   3   16.67    1.16
 -11 -13  -3    5.17    0.73
 -11 -13  -3    5.34    0.77
  11 -13   3    4.93    0.67
 -11  13  -3    5.94    0.89
  11  13   3    4.97    0.99
  11  13   3    3.93    0.68
 -11  13  -3    4.98    0.92
 -13 -13  -3    0.60    0.59
 -13 -13  -3    0.61    0.50
 -13 -13  -3    1.12    0.71
 -13  13  -3    0.98    0.64
  13  13   3   -0.15    0.92
 -13  13  -3    1.23    0.77
  13  13   3    0.13    0.54
 -15 -13  -3   19.87    1.39
 -15 -13  -3   21.96    1.58
 -15 -13  -3   19.10    1.69
  15  13   3   18.79    2.51
 -15  13  -3   17.81    2.02
 -15  13  -3   18.85    1.55
  15  13   3   18.79    1.53
 -17 -13  -3   58.63    2.58
 -17 -13  -3   59.46    2.77
 -17 -13  -3   58.77    2.92
  17  13   3   57.73    2.86
  17  13   3   58.43    3.88
 -17  13  -3   59.06    3.53
 -16 -14   3   18.35    1.58
 -16  14   3   18.03    1.71
  16  14  -3   16.82    1.64
 -14 -14   3   77.88    3.11
  14  14  -3   77.30    4.30
 -14  14   3   75.76    3.07
  14  14  -3   70.44    3.18
 -12 -14   3   21.85    1.46
  12  14  -3   25.25    1.64
 -12  14   3   22.53    1.46
  12  14  -3   23.00    2.57
  10 -14  -3   31.24    1.64
 -10 -14   3   34.12    2.36
 -10 -14   3   30.98    1.66
 -10 -14   3   35.48    1.56
  10  14  -3   29.78    2.72
 -10  14   3   31.91    1.58
  10  14  -3   31.92    1.79
  -8 -14   3    6.08    0.76
  -8 -14   3    4.73    0.59
   8 -14  -3    4.97    0.69
  -8 -14   3    6.62    1.08
  -8  14   3    4.74    0.63
   8  14  -3    6.32    1.19
   8  14  -3    6.45    0.89
  -6 -14   3   98.37    3.36
  -6 -14   3  100.93    3.71
  -6 -14   3   96.29    3.44
   6 -14  -3   92.28    3.41
   6  14  -3   97.43    3.55
  -6  14   3   90.52    3.33
   6  14  -3   90.26    3.94
   4 -14  -3  156.75    5.32
  -4 -14   3  160.82    5.50
   4 -14  -3  158.98    5.24
  -4 -14   3  156.97    5.20
  -4 -14   3  151.12    5.22
   4  14  -3  153.16    5.73
   4  14  -3  157.49    5.33
  -4  14   3  155.20    5.21
  -4  14   3  167.18    5.08
   2 -14  -3   74.00    2.75
   2 -14  -3   73.96    2.80
  -2 -14   3   72.91    2.74
   2  14  -3   74.89    3.20
   2  14  -3   73.53    2.82
  -2  14   3   74.55    2.81
  -2  14   3   74.62    2.60
   0 -14  -3    6.57    0.74
   0 -14   3    7.11    0.72
   0 -14  -3    7.58    0.74
   0  14   3    6.37    0.81
   0  14  -3    6.93    1.06
   0  14  -3    7.56    0.77
   0  14   3    7.44    0.67
  -2 -14  -3  161.48    5.35
  -2 -14  -3  156.19    5.30
   2 -14   3  161.46    5.33
  -2  14  -3  162.93    5.72
  -2  14  -3  163.57    5.38
   2  14   3  163.89    5.26
   2  14   3  159.22    5.54
  -4 -14  -3  116.25    4.02
  -4 -14  -3  116.74    4.05
   4 -14   3  118.78    4.05
   4  14   3  119.94    4.03
  -4  14  -3  114.68    4.38
  -4  14  -3  121.79    4.09
   4  14   3  113.00    4.30
   6 -14   3   11.89    0.92
  -6 -14  -3   11.64    0.93
  -6 -14  -3   12.36    0.93
  -6  14  -3   12.50    0.96
   6  14   3   13.53    1.24
  -6  14  -3   12.54    1.25
   6  14   3   12.94    0.97
  -8 -14  -3    3.83    0.81
   8 -14   3    1.87    0.69
  -8 -14  -3    1.59    0.47
   8  14   3    1.82    0.53
  -8  14  -3    1.02    0.64
  -8  14  -3    2.76    0.56
   8  14   3    2.51    0.79
  10 -14   3   58.15    2.41
 -10 -14  -3   54.19    2.35
 -10 -14  -3   62.22    2.46
  10  14   3   57.17    2.94
 -10  14  -3   57.22    2.80
 -10  14  -3   61.98    2.48
  10  14   3   57.92    2.49
 -12 -14  -3  112.28    4.03
 -12 -14  -3  109.99    3.97
 -12 -14  -3  112.71    4.05
  12 -14   3  111.84    4.05
 -12  14  -3  115.00    4.12
 -12  14  -3  107.12    4.47
  12  14   3  111.14    4.15
  12  14   3  110.55    4.70
 -14 -14  -3    5.83    0.91
 -14 -14  -3    5.24    1.03
 -14 -14  -3    4.11    0.78
  14  14   3    7.65    1.02
 -14  14  -3    6.52    1.19
  14  14   3    6.61    1.56
 -15 -15   3   51.96    2.67
 -15  15   3   61.21    2.67
  15  15  -3   54.64    2.87
 -13 -15   3    0.89    0.70
  13  15  -3   -2.20    1.44
 -13  15   3    1.17    0.80
  11 -15  -3   34.56    1.83
 -11 -15   3   32.96    1.80
 -11  15   3   33.91    1.76
  11  15  -3   38.38    2.87
  11  15  -3   32.67    1.96
  -9 -15   3   64.95    2.44
   9 -15  -3   63.44    2.55
  -9 -15   3   55.45    2.46
   9  15  -3   58.82    3.26
   9  15  -3   59.62    2.66
  -9  15   3   57.90    2.40
  -7 -15   3  114.81    3.71
   7 -15  -3  104.01    3.77
  -7 -15   3   95.83    3.72
  -7 -15   3  108.59    4.11
   7  15  -3   96.52    4.55
  -7  15   3  101.39    3.67
   7  15  -3  104.38    3.89
   5 -15  -3    1.88    0.52
  -5 -15   3    1.36    0.49
  -5 -15   3    1.41    0.47
  -5 -15   3    1.46    0.82
   5  15  -3    1.05    0.49
   5  15  -3    1.01    0.80
  -5  15   3    1.25    0.53
  -3 -15   3   30.76    1.67
   3 -15  -3   31.47    1.93
   3 -15  -3   32.97    1.61
  -3  15   3   31.37    1.62
   3  15  -3   33.79    2.11
  -3  15   3   37.85    1.50
   3  15  -3   36.02    1.71
  -1 -15   3   46.74    2.03
   1 -15  -3   47.55    2.02
   1 -15  -3   49.81    2.10
  -1  15   3   47.95    2.15
   1  15  -3   47.16    2.09
  -1  15   3   51.22    1.94
   1  15  -3   47.08    2.44
  -1 -15  -3  145.73    5.05
   1 -15   3  148.39    5.01
  -1 -15  -3  144.49    4.99
  -1  15  -3  158.56    5.12
   1  15   3  153.47    4.95
   1  15   3  145.36    5.21
  -1  15  -3  146.97    5.44
   3 -15   3    6.50    0.78
  -3 -15  -3    5.61    0.79
  -3 -15  -3    6.76    0.82
  -3  15  -3    8.44    0.89
   3  15   3    7.86    0.81
   5 -15   3   69.86    2.82
   5  15   3   70.91    3.10
   5  15   3   74.04    2.78
  -5  15  -3   77.58    2.84
  -5  15  -3   69.67    3.13
  -7 -15  -3   87.79    3.24
  -7 -15  -3   86.47    3.23
   7 -15   3   85.75    3.22
  -7  15  -3   79.53    3.55
   7  15   3   82.67    3.61
  -7  15  -3   91.30    3.36
   7  15   3   91.92    3.31
  -9 -15  -3   42.91    2.02
  -9 -15  -3   43.08    1.98
   9 -15   3   41.13    1.98
  -9  15  -3   46.79    2.08
   9  15   3   40.22    2.42
  -9  15  -3   43.98    2.37
   9  15   3   44.26    2.10
 -11 -15  -3    3.95    0.73
 -11 -15  -3    5.82    0.87
  11 -15   3    4.26    0.75
 -11  15  -3    7.10    1.18
  11  15   3    3.23    1.10
  11  15   3    5.77    0.85
 -13 -15  -3   37.52    1.93
 -13 -15  -3   35.75    1.98
 -13  15  -3   30.00    2.34
  13  15   3   35.85    2.06
  13  15   3   34.32    2.72
 -12 -16   3   57.09    2.61
  12  16  -3   57.79    2.78
 -12  16   3   58.72    2.59
  12  16  -3   61.90    3.92
  10 -16  -3   43.49    2.09
 -10 -16   3   42.50    2.07
 -10  16   3   41.85    2.00
  10  16  -3   41.09    2.23
  10  16  -3   37.49    2.98
  -8 -16   3    3.09    0.64
   8 -16  -3    4.08    0.71
  -8 -16   3    2.21    0.68
   8  16  -3    3.58    0.80
  -8  16   3    2.58    0.67
   8  16  -3    3.06    1.09
   6 -16  -3  156.43    5.35
  -6 -16   3  165.09    5.33
  -6 -16   3  156.47    5.35
   6  16  -3  148.87    5.98
   6  16  -3  156.42    5.49
  -6  16   3  155.12    5.29
   4 -16  -3  207.55    6.75
  -4 -16   3  202.46    6.74
   4  16  -3  206.16    7.37
   4  16  -3  208.56    7.07
  -4  16   3  199.70    6.73
   2 -16  -3   13.40    1.05
   2 -16  -3   10.18    1.01
  -2 -16   3   10.83    0.97
   2  16  -3    9.83    1.41
   2  16  -3   11.74    1.10
  -2  16   3    9.32    1.09
   0 -16  -3   28.25    1.53
   0 -16  -3   28.21    1.58
   0 -16   3   28.78    1.52
   0  16   3   29.52    1.72
   0  16   3   32.94    1.51
   0  16  -3   29.25    1.66
   0  16  -3   29.97    1.97
  -2 -16  -3   59.84    2.49
  -2 -16  -3   61.38    2.55
   2 -16   3   60.23    2.49
  -2  16  -3   58.19    2.91
   2  16   3   59.19    2.73
  -2  16  -3   67.95    2.62
   2  16   3   66.72    2.49
  -4 -16  -3   59.53    2.58
   4 -16   3   66.29    2.62
  -4 -16  -3   63.20    2.59
  -4  16  -3   62.98    2.98
   4  16   3   63.73    2.91
   4  16   3   65.33    3.05
  -4  16  -3   70.79    2.69
   6 -16   3   37.72    1.85
  -6 -16  -3   39.91    1.89
  -6 -16  -3   39.60    1.88
  -6  16  -3   44.63    2.00
  -6  16  -3   34.98    2.21
   6  16   3   40.02    2.30
   6  16   3   36.25    2.19
  -8 -16  -3    6.67    0.86
  -8 -16  -3    5.19    0.76
   8 -16   3    6.63    0.84
   8  16   3    6.95    0.91
  -8  16  -3    7.70    1.14
  -8  16  -3    6.04    1.11
   8  16   3    6.47    1.08
 -10 -16  -3   71.93    3.04
 -10 -16  -3   75.05    3.01
  10 -16   3   78.36    3.09
  10  16   3   75.94    3.12
 -10  16  -3   73.71    3.49
  10  16   3   74.95    3.65
 -12 -16  -3  157.15    5.47
 -12 -16  -3  159.53    5.42
  12 -16   3  158.57    5.47
 -12  16  -3  155.04    5.94
  12  16   3  158.42    5.57
  12  16   3  146.92    6.12
  11 -17  -3   16.56    1.53
 -11 -17   3   15.39    1.46
  11  17  -3   15.79    1.72
  11  17  -3   14.92    2.08
 -11  17   3   18.38    2.43
  -9 -17   3   87.95    3.46
   9 -17  -3   88.56    3.47
   9  17  -3   88.03    3.62
  -9  17   3   89.57    3.37
   9  17  -3   82.69    4.34
   7 -17  -3    8.24    1.14
  -7 -17   3    8.86    1.17
  -7  17   3   12.01    1.20
   7  17  -3    9.95    1.62
   7  17  -3   12.46    1.34
  -5 -17   3    0.36    0.51
   5 -17  -3    1.33    0.60
   5  17  -3   -0.32    0.92
   5  17  -3   -0.14    0.62
  -3 -17   3    7.46    0.96
   3 -17  -3    5.04    0.73
   3  17  -3    7.04    1.18
  -3  17   3    7.26    1.07
   3  17  -3    5.99    0.85
   1 -17  -3   54.58    2.34
   1 -17  -3   52.55    2.38
  -1 -17   3   51.73    2.29
  -1  17   3   49.27    2.42
   1  17  -3   55.04    2.47
   1  17  -3   54.62    2.83
   1 -17   3   32.16    1.65
  -1 -17  -3   28.84    1.60
  -1 -17  -3   29.04    1.69
   1  17   3   30.47    1.62
  -1  17  -3   31.69    1.88
  -1  17  -3   29.69    2.11
   1  17   3   27.57    1.82
  -3 -17  -3    7.63    0.89
   3 -17   3    8.85    1.02
  -3 -17  -3   10.22    1.06
   3  17   3    8.51    1.08
   3  17   3    6.85    1.22
  -3  17  -3    6.33    1.26
  -3  17  -3    8.96    1.24
  -5 -17  -3   13.24    1.22
   5 -17   3   10.26    1.10
  -5 -17  -3   11.66    1.20
   5  17   3    9.52    1.27
   5  17   3   11.06    1.23
  -5  17  -3   10.83    1.30
  -5  17  -3   10.83    1.40
  -7 -17  -3   64.44    2.68
  -7 -17  -3   63.08    2.66
   7 -17   3   58.64    2.63
   7  17   3   56.36    3.04
  -7  17  -3   58.22    3.04
   7  17   3   66.08    2.72
  -7  17  -3   66.42    2.74
  -9 -17  -3   37.07    1.94
   9 -17   3   32.49    1.87
  -9 -17  -3   34.53    1.95
   9  17   3   37.97    2.04
   9  17   3   33.71    2.48
  -9  17  -3   32.06    2.36
 -11 -17  -3    1.03    0.79
  11 -17   3    0.77    0.72
 -11 -17  -3    0.75    0.76
  11  17   3    1.93    1.30
  11  17   3    1.54    0.85
 -11  17  -3    1.25    1.17
  -8 -18   3   -0.31    0.67
   8 -18  -3    1.08    0.69
   8  18  -3    1.76    1.34
   8  18  -3    1.59    0.84
  -8  18   3    2.22    0.81
  -6 -18   3    4.42    0.81
   6 -18  -3    4.23    0.86
   6  18  -3    2.76    0.86
  -6  18   3    4.95    0.85
   6  18  -3    1.83    1.31
   4 -18  -3   78.28    3.16
  -4 -18   3   78.01    3.15
   4  18  -3   78.19    3.30
   4  18  -3   82.49    3.90
  -4  18   3   76.56    3.20
   2 -18  -3   23.20    1.51
  -2 -18   3   19.47    1.45
   2  18  -3   23.09    1.67
   2  18  -3   19.53    2.11
  -2  18   3   20.31    1.62
   0 -18   3   12.61    1.20
   0 -18  -3   11.55    1.25
   0 -18  -3   13.10    1.36
   0  18   3   13.16    1.44
   0  18  -3   11.53    1.41
   0  18  -3   12.55    1.78
  -2 -18  -3   24.03    1.58
  -2 -18  -3   25.05    1.69
   2 -18   3   24.97    1.58
  -2  18  -3   27.24    2.15
  -2  18  -3   26.13    1.77
   2  18   3   22.33    1.83
  -4 -18  -3   20.58    1.52
  -4 -18  -3   18.16    1.47
   4 -18   3   15.17    1.35
  -4  18  -3   19.59    1.59
  -4  18  -3   16.93    1.94
   4  18   3   17.50    1.77
   4  18   3   18.74    1.47
   6 -18   3   25.77    1.63
  -6 -18  -3   21.36    1.64
  -6 -18  -3   24.29    1.67
   6  18   3   23.05    2.02
   6  18   3   25.33    1.74
  -6  18  -3   22.25    2.02
  -8 -18  -3    0.59    0.76
  -8 -18  -3    1.78    0.77
   8 -18   3    1.01    0.73
  -8  18  -3    2.53    1.12
   8  18   3    0.06    0.84
   8  18   3    0.14    1.02
   5 -19  -3    1.09    0.76
  -5 -19   3    1.58    0.71
  -5  19   3   -0.60    0.83
   5  19  -3   -1.50    1.25
   5  19  -3    1.80    0.86
   3 -19  -3    0.72    0.75
  -3 -19   3    1.57    0.72
   3  19  -3   -0.22    0.85
   3  19  -3    1.83    1.25
  -3  19   3    0.27    0.82
  -1 -19   3   16.22    1.39
   1 -19  -3   15.79    1.44
   1  19  -3   15.88    1.69
   1  19  -3   15.65    2.08
  -1  19   3   13.02    1.55
  -1 -19  -3   21.28    1.71
   1 -19   3   24.19    1.62
  -1 -19  -3   21.72    1.67
   1  19   3   21.57    1.87
  -1  19  -3   18.50    2.22
  -1  19  -3   24.66    1.90
  -3 -19  -3    6.51    0.91
   3 -19   3    5.06    0.87
  -3 -19  -3    5.04    0.89
  -3  19  -3    5.76    1.29
  -3  19  -3    5.81    1.07
   3  19   3    5.22    1.16
   5 -19   3   12.14    1.42
  -5 -19  -3   11.41    1.53
  -5 -19  -3   11.65    1.49
   5  19   3   15.92    1.97
  -5  19  -3   12.89    1.71
 -22   0   4   91.72    3.82
 -22   0   4   83.54    4.41
 -22   0   4   87.01    4.85
 -20   0   4   48.27    2.93
 -20   0   4   47.17    2.43
 -20   0   4   52.70    3.30
 -18   0   4   23.71    2.11
 -18   0   4   27.91    1.59
 -18   0   4   23.24    2.34
  18   0  -4   26.10    1.16
 -16   0   4   61.31    2.81
 -16   0   4   61.78    2.43
 -16   0   4   56.58    3.04
  16   0  -4   54.83    2.03
 -14   0   4   29.94    1.42
 -14   0   4   28.08    1.89
 -14   0   4   31.02    1.73
  14   0  -4   28.66    1.15
  12   0  -4   60.77    2.03
 -12   0   4   58.49    2.67
 -12   0   4   57.64    2.45
  12   0  -4   61.76    2.27
 -12   0   4   58.42    2.19
  12   0  -4   57.91    1.99
  10   0  -4  249.73    7.31
 -10   0   4  229.37    7.91
 -10   0   4  233.07    7.46
 -10   0   4  251.56    7.29
  10   0  -4  226.15    7.28
  10   0  -4  257.40    7.51
 -10   0   4  235.75    7.70
   8   0  -4  193.12    5.50
  -8   0   4  192.44    5.45
  -8   0   4  172.44    5.77
  -8   0   4  175.88    5.59
   8   0  -4  167.70    5.47
   8   0  -4  191.87    5.65
  -8   0   4  167.49    5.96
   6   0  -4  902.92   26.40
   6   0  -4  913.47   26.33
  -6   0   4  923.91   26.42
  -6   0   4  901.19   26.30
  -6   0   4  837.35   26.65
  -6   0   4  935.10   26.54
  -6   0   4  829.27   26.46
   6   0  -4  870.36   26.56
   6   0  -4  909.37   26.38
  -6   0   4  842.80   26.75
   4   0  -4  158.45    4.71
  -4   0   4  154.12    4.73
  -4   0   4  146.76    4.67
   4   0  -4  161.63    4.91
  -4   0   4  155.20    4.65
   4   0  -4  159.11    4.73
   4   0  -4  147.78    4.62
   4   0  -4  154.18    4.63
  -4   0   4  149.40    4.93
  -4   0   4  145.12    4.82
  -2   0   4    0.29    0.12
   2   0  -4    0.27    0.09
   2   0  -4    0.44    0.14
  -2   0   4    0.60    0.18
   2   0  -4    0.16    0.16
  -2   0   4    0.37    0.08
   2   0  -4    0.15    0.07
   2   0  -4    0.28    0.05
   0   0   4  476.97   14.85
   0   0   4  501.32   14.73
   0   0  -4  513.10   14.86
   0   0  -4  510.96   14.86
   0   0   4  500.51   14.82
   0   0  -4  485.24   14.97
   0   0  -4  504.46   14.82
   0   0   4  468.82   14.85
   2   0   4  103.26    3.21
   2   0   4   98.71    3.20
  -2   0  -4   95.48    3.07
  -2   0  -4   98.10    3.19
   2   0   4   93.02    3.15
  -2   0  -4  100.10    3.17
   2   0   4  102.53    3.09
  -2   0  -4   98.89    3.20
   4   0   4  244.94    7.32
   4   0   4  249.47    7.49
  -4   0  -4  223.79    7.30
   4   0   4  232.25    7.43
  -4   0  -4  242.17    7.17
  -4   0  -4  227.14    7.45
  -4   0  -4  265.33    7.44
   6   0   4   62.24    2.14
  -6   0  -4   62.06    2.18
   6   0   4   57.89    2.16
  -6   0  -4   59.01    2.22
   6   0   4   57.91    2.21
  -6   0  -4   56.67    2.02
  -6   0  -4   61.45    1.90
  -8   0  -4   45.48    1.50
  -8   0  -4   42.29    1.62
  -8   0  -4   42.87    1.86
 -10   0  -4  408.64   12.45
 -10   0  -4  419.79   12.80
  10   0   4  392.50   12.57
 -12   0  -4  247.53    8.31
 -12   0  -4  254.79    7.95
  12   0   4  250.45    8.11
 -14   0  -4    0.90    0.63
 -14   0  -4    1.11    0.36
 -16   0  -4   47.75    2.65
 -16   0  -4   48.80    2.16
 -18   0  -4  264.20    9.02
 -18   0  -4  287.68    9.71
 -20   0  -4   35.84    3.04
 -20   0  -4   33.64    2.07
  22   0   4    1.73    0.82
 -22   0  -4    1.29    1.79
 -22   0  -4    1.60    0.86
 -23  -1   4    3.39    1.99
 -23  -1   4   -1.44    1.54
 -23  -1   4    1.24    1.02
 -23   1   4    0.04    1.06
 -23   1   4    2.40    1.49
 -23   1   4    2.04    1.87
 -21  -1   4    3.22    1.50
 -21  -1   4    2.62    0.90
 -21  -1   4    4.61    1.41
 -21   1   4    2.90    0.87
 -21   1   4    0.44    1.14
 -21   1   4    4.12    1.62
 -19  -1   4   97.66    4.66
 -19  -1   4   98.83    3.82
 -19  -1   4   95.24    4.33
 -19   1   4   98.04    4.31
 -19   1   4  103.58    3.82
  19   1  -4  100.49    3.34
 -19   1   4   95.20    4.70
 -17  -1   4  124.17    5.07
 -17  -1   4  116.75    4.76
 -17  -1   4  121.47    4.32
  17  -1  -4  118.29    3.75
  17   1  -4  118.13    3.93
 -17   1   4  117.92    4.71
 -17   1   4  120.14    5.09
 -17   1   4  123.60    4.30
 -15  -1   4    8.14    0.81
 -15  -1   4    7.90    1.18
 -15  -1   4    9.01    1.17
  15  -1  -4    9.32    0.55
  15   1  -4    8.48    0.64
 -15   1   4    9.86    0.81
 -15   1   4    9.18    1.06
 -15   1   4    7.30    1.17
  13  -1  -4   22.48    0.90
  13  -1  -4   19.85    0.82
 -13  -1   4   19.55    1.08
 -13  -1   4   20.60    1.39
 -13  -1   4   22.40    1.58
  13  -1  -4   22.38    1.20
 -13   1   4   20.55    1.06
  13   1  -4   20.06    0.93
 -13   1   4   21.01    1.35
 -13   1   4   19.24    1.53
 -11  -1   4  266.33    8.76
  11  -1  -4  285.73    8.19
 -11  -1   4  270.05    8.27
 -11  -1   4  260.48    8.53
  11  -1  -4  282.77    7.99
  11  -1  -4  246.29    7.96
  11   1  -4  277.90    8.35
 -11   1   4  262.21    8.46
 -11   1   4  250.23    8.19
  11   1  -4  253.58    8.08
  11   1  -4  271.20    8.11
 -11   1   4  252.51    8.72
 -11   1   4  265.39    8.05
   9  -1  -4  265.36    8.22
  -9  -1   4  275.95    8.68
  -9  -1   4  271.59    8.85
   9  -1  -4  290.16    8.23
  -9  -1   4  260.60    8.43
   9  -1  -4  294.01    8.38
  -9   1   4  273.66    8.87
  -9   1   4  256.88    8.38
   9   1  -4  281.41    8.35
   9   1  -4  261.07    8.32
  -9   1   4  259.23    8.57
   9   1  -4  286.18    8.54
  -9   1   4  293.60    8.29
  -7  -1   4   12.91    0.64
  -7  -1   4   12.82    0.91
   7  -1  -4   13.71    0.61
  -7  -1   4   14.34    0.48
  -7  -1   4   13.04    0.62
   7  -1  -4   13.02    0.48
  -7  -1   4   12.41    0.77
   7  -1  -4   13.57    0.50
  -7   1   4   12.71    0.59
  -7   1   4   13.43    0.68
  -7   1   4   13.46    0.73
   7   1  -4   13.24    0.71
  -7   1   4   11.35    0.85
   7   1  -4   12.41    0.57
   7   1  -4   13.98    0.62
  -7   1   4   13.68    0.56
  -7   1   4   14.58    0.53
   5  -1  -4  261.36    7.47
   5  -1  -4  236.47    7.36
  -5  -1   4  236.80    7.80
   5  -1  -4  257.34    7.46
  -5  -1   4  237.97    7.52
  -5  -1   4  242.76    7.65
  -5  -1   4  226.15    7.68
   5  -1  -4  247.34    7.37
  -5  -1   4  262.91    7.49
  -5   1   4  253.82    7.41
   5   1  -4  257.07    7.49
   5   1  -4  251.99    7.60
   5   1  -4  260.88    7.63
  -5   1   4  239.62    7.78
  -5   1   4  250.69    7.51
   5   1  -4  236.97    7.47
  -5   1   4  238.30    7.56
  -5   1   4  258.98    7.43
   5   1  -4  263.38    7.78
  -5   1   4  251.39    7.48
  -5   1   4  237.34    7.46
  -3  -1   4  146.24    4.39
   3  -1  -4  149.38    4.35
   3  -1  -4  152.92    4.36
   3  -1  -4  137.04    4.31
  -3  -1   4  139.65    4.40
  -3  -1   4  151.05    4.49
  -3  -1   4  139.52    4.50
  -3  -1   4  143.24    4.63
   3  -1  -4  137.57    4.28
   3   1  -4  153.79    4.40
  -3   1   4  143.94    4.59
  -3   1   4  141.47    4.33
  -3   1   4  149.62    4.32
  -3   1   4  145.33    4.34
   3   1  -4  135.33    4.38
   3   1  -4  153.47    4.63
   3   1  -4  146.64    4.48
  -3   1   4  137.97    4.34
  -3   1   4  136.21    4.40
   3   1  -4  136.86    4.47
  -3   1   4  141.67    4.39
   1  -1  -4  384.41   11.30
   1  -1  -4  382.57   11.30
   1  -1  -4  397.97   11.41
  -1  -1   4  354.49   11.40
   1  -1  -4  391.99   11.29
  -1  -1   4  371.06   11.41
   1  -1  -4  368.63   11.37
   1  -1  -4  381.62   11.32
  -1  -1   4  387.94   11.30
  -1  -1   4  369.37   11.46
   1   1  -4  390.93   11.38
  -1   1   4  402.37   11.37
   1   1  -4  393.01   11.48
  -1   1   4  370.95   11.32
   1   1  -4  364.07   11.29
  -1   1   4  389.59   11.29
  -1   1   4  359.77   11.40
   1   1  -4  356.73   11.28
  -1   1   4  365.37   11.40
   1   1  -4  381.14   11.39
  -1  -1  -4   79.29    2.50
  -1  -1  -4   77.94    2.45
   1  -1   4   73.03    2.26
   1  -1   4   69.61    2.50
  -1  -1  -4   74.79    2.45
   1  -1   4   73.24    2.49
  -1  -1  -4   73.66    2.35
   1  -1   4   77.67    2.40
   1  -1   4   76.39    2.50
  -1   1  -4   76.67    2.50
   1   1   4   76.58    2.50
   1   1   4   77.92    2.38
   1   1   4   72.88    2.43
  -1   1  -4   79.80    2.55
   1   1   4   78.22    2.48
  -1   1  -4   72.72    2.39
  -3  -1  -4  145.96    4.73
   3  -1   4  147.63    4.71
   3  -1   4  157.49    4.76
   3  -1   4  147.99    4.61
   3  -1   4  143.01    4.72
  -3  -1  -4  155.96    4.75
  -3  -1  -4  154.72    4.66
  -3  -1  -4  143.15    4.59
   3   1   4  155.35    4.76
   3   1   4  158.08    4.62
  -3   1  -4  149.56    4.76
  -3   1  -4  150.00    4.48
  -3   1  -4  138.96    4.60
  -3   1  -4  159.12    4.76
   3   1   4  139.29    4.71
   5  -1   4  295.08    9.51
   5  -1   4  305.44    9.38
  -5  -1  -4  310.35    9.57
  -5  -1  -4  286.47    9.38
   5  -1   4  328.15    9.58
  -5  -1  -4  334.97    9.46
  -5  -1  -4  318.37    9.56
  -5   1  -4  314.55    9.25
  -5   1  -4  322.86    9.57
   5   1   4  287.85    9.50
   5   1   4  318.59    9.58
  -5   1  -4  333.49    9.57
  -5   1  -4  288.02    9.38
   5   1   4  309.46    9.40
  -5   1  -4  298.24    9.56
  -7  -1  -4  209.18    6.18
   7  -1   4  179.57    6.22
  -7  -1  -4  198.49    6.31
  -7  -1  -4  182.74    6.05
   7   1   4  204.53    6.30
  -7   1  -4  197.89    5.91
   7   1   4  193.93    6.21
  -7   1  -4  190.93    6.29
   9  -1   4   18.68    1.02
  -9  -1  -4   18.82    1.17
  -9  -1  -4   18.93    0.92
  -9   1  -4   19.27    0.90
   9   1   4   17.69    1.02
  -9   1  -4   17.92    1.16
 -11  -1  -4   55.00    2.08
 -11  -1  -4   55.26    2.43
  11  -1   4   51.44    2.18
 -11   1  -4   58.08    2.10
 -11   1  -4   55.40    2.39
  11   1   4   52.19    2.19
  13  -1   4   43.46    1.93
 -13  -1  -4   43.46    2.22
 -13  -1  -4   39.15    1.77
  13   1   4   42.07    1.92
 -13   1  -4   41.65    1.78
 -13   1  -4   43.99    2.18
 -15  -1  -4  121.99    4.25
 -15  -1  -4  120.63    4.71
 -15   1  -4  118.39    4.68
 -15   1  -4  118.27    4.21
 -17  -1  -4   73.99    3.57
 -17  -1  -4   73.61    2.97
 -17   1  -4   74.42    3.54
 -17   1  -4   71.92    2.95
 -19  -1  -4   14.66    2.98
 -19  -1  -4   21.28    1.55
 -19   1  -4   18.20    1.51
 -19   1  -4   23.58    2.34
  21  -1   4  115.25    4.02
 -21  -1  -4  105.73    4.33
 -21  -1  -4  106.77    5.40
 -21   1  -4  108.97    5.32
 -21   1  -4  106.19    4.36
  21   1   4  114.72    4.08
 -22  -2   4   93.44    5.06
 -22  -2   4   91.10    3.93
 -22  -2   4   91.55    4.74
 -22   2   4   96.32    3.95
 -22   2   4   90.29    5.05
 -22   2   4   91.75    4.47
 -20  -2   4   28.32    2.79
 -20  -2   4   30.72    1.92
 -20  -2   4   29.23    2.55
 -20   2   4   31.10    2.43
  20   2  -4   30.81    1.53
 -20   2   4   28.64    2.31
 -20   2   4   30.23    2.79
 -18  -2   4   -1.36    0.76
 -18  -2   4   -0.22    0.50
 -18  -2   4   -0.26    0.93
  18   2  -4    0.24    0.42
 -18   2   4    1.04    0.54
 -18   2   4   -0.74    1.54
 -16  -2   4   61.08    2.48
 -16  -2   4   61.93    2.92
 -16  -2   4   61.61    3.08
 -16   2   4   58.69    2.76
 -16   2   4   57.92    3.08
  16   2  -4   57.56    2.19
 -16   2   4   59.24    2.39
 -14  -2   4  111.36    3.93
 -14  -2   4  111.59    4.47
 -14  -2   4  111.43    4.29
  14   2  -4  117.64    4.12
 -14   2   4  115.18    3.85
 -14   2   4  111.52    4.51
  14   2  -4  110.43    3.72
 -14   2   4  112.38    4.19
 -12  -2   4  118.35    4.36
  12  -2  -4  122.93    3.87
 -12  -2   4  120.22    4.07
 -12  -2   4  119.70    4.53
  12   2  -4  120.64    3.91
 -12   2   4  115.42    4.22
  12   2  -4  126.45    4.22
  10  -2  -4    0.79    0.28
 -10  -2   4    0.26    0.32
 -10  -2   4    0.73    0.24
 -10  -2   4    0.92    0.40
 -10   2   4    0.98    0.23
 -10   2   4    0.73    0.29
  10   2  -4    1.05    0.40
 -10   2   4    0.58    0.20
  10   2  -4    0.54    0.20
  10   2  -4    0.51    0.29
  -8  -2   4  110.63    4.00
  -8  -2   4  111.73    3.66
  -8  -2   4  106.97    3.85
   8   2  -4  120.30    3.79
  -8   2   4  106.08    3.69
   8   2  -4  121.13    3.61
  -8   2   4  110.54    3.54
  -8   2   4  115.68    3.50
   8   2  -4  110.15    3.57
  -6  -2   4  305.47    9.37
  -6  -2   4  334.44    9.48
  -6  -2   4  296.32    9.51
  -6  -2   4  306.53    9.67
  -6  -2   4  309.85    9.31
   6   2  -4  334.24    9.66
  -6   2   4  316.12    9.23
  -6   2   4  297.51    9.23
  -6   2   4  286.66    9.33
  -6   2   4  328.26    9.21
  -6   2   4  284.23    9.59
   6   2  -4  317.20    9.32
   6   2  -4  312.72    9.46
  -6   2   4  311.20    9.28
   6   2  -4  284.17    9.29
  -4  -2   4  350.84   10.04
  -4  -2   4  317.75   10.15
  -4  -2   4  314.50   10.03
   4  -2  -4  319.72    9.93
  -4  -2   4  327.41   10.29
  -4  -2   4  349.12   10.13
  -4   2   4  324.05    9.94
  -4   2   4  321.06   10.22
  -4   2   4  350.94    9.94
   4   2  -4  364.47   10.29
   4   2  -4  341.34   10.02
   4   2  -4  346.48   10.15
  -4   2   4  322.17    9.97
   4   2  -4  312.15   10.00
  -4   2   4  320.18    9.90
   4   2  -4  332.14   10.13
  -4   2   4  344.66    9.96
  -4   2   4  337.30    9.89
   2  -2  -4    4.31    0.22
   2  -2  -4    4.51    0.23
  -2  -2   4    4.43    0.36
  -2  -2   4    4.49    0.41
  -2  -2   4    4.10    0.28
   2   2  -4    4.53    0.30
  -2   2   4    4.92    0.23
   2   2  -4    4.51    0.17
  -2   2   4    4.56    0.20
  -2   2   4    4.44    0.24
   2   2  -4    4.06    0.27
   2   2  -4    4.37    0.38
   2   2  -4    4.12    0.35
  -2   2   4    4.32    0.20
  -2   2   4    3.77    0.35
  -2   2   4    4.34    0.25
   2   2  -4    3.64    0.44
   0  -2  -4   66.96    2.14
   0  -2  -4   69.59    2.20
   0  -2   4   70.53    2.15
   0  -2  -4   69.55    2.23
   0  -2   4   72.22    2.26
   0  -2  -4   68.97    2.15
   0  -2  -4   72.29    2.27
   0  -2   4   69.06    2.33
   0  -2  -4   74.08    2.34
   0  -2   4   68.59    2.41
   0  -2   4   74.77    2.37
   0   2  -4   70.91    2.32
   0   2   4   68.44    2.33
   0   2  -4   72.55    2.43
   0   2   4   68.35    2.26
   0   2   4   71.30    2.28
   0   2   4   73.03    2.14
   0   2  -4   72.09    2.37
   0   2   4   67.27    2.18
   0   2  -4   68.60    2.25
  -2  -2  -4  206.73    6.44
   2  -2   4  210.96    6.52
  -2  -2  -4  205.89    6.33
   2  -2   4  220.52    6.50
  -2  -2  -4  222.31    6.48
  -2  -2  -4  197.09    6.31
  -2  -2  -4  201.92    6.32
   2  -2   4  208.22    6.46
  -2  -2  -4  204.01    6.23
   2  -2   4  203.20    6.24
   2  -2   4  208.70    6.36
  -2   2  -4  226.66    6.49
  -2   2  -4  213.07    6.51
  -2   2  -4  200.31    6.37
   2   2   4  209.35    6.32
  -2   2  -4  209.30    6.24
   2   2   4  209.86    6.34
   2   2   4  195.55    6.45
   2   2   4  218.58    6.48
  -2   2  -4  216.33    6.55
  -4  -2  -4  515.21   16.29
   4  -2   4  539.58   16.42
   4  -2   4  513.81   16.42
   4  -2   4  570.10   16.48
   4  -2   4  566.33   16.33
  -4  -2  -4  527.88   16.47
  -4  -2  -4  571.86   16.31
  -4  -2  -4  569.24   16.47
  -4   2  -4  561.29   16.20
  -4   2  -4  530.22   16.49
  -4   2  -4  582.16   16.48
   4   2   4  527.18   16.43
  -4   2  -4  564.23   16.52
  -4   2  -4  519.13   16.32
   4   2   4  539.99   16.32
   4   2   4  536.96   16.48
   6  -2   4   33.77    1.49
  -6  -2  -4   38.95    1.39
   6  -2   4   33.61    1.42
  -6  -2  -4   33.81    1.32
  -6  -2  -4   33.93    1.50
   6  -2   4   34.21    1.31
  -6   2  -4   37.20    1.21
  -6   2  -4   34.70    1.33
  -6   2  -4   41.10    1.86
   6   2   4   36.64    1.54
   6   2   4   34.03    1.43
  -8  -2  -4  150.74    4.84
   8  -2   4  147.29    4.94
  -8  -2  -4  160.42    5.13
  -8   2  -4  152.45    4.68
  -8   2  -4  153.63    4.83
  -8   2  -4  145.94    5.32
   8   2   4  148.69    4.96
   8   2   4  152.13    5.10
  10  -2   4  308.27    9.68
 -10  -2  -4  303.78    9.55
  10   2   4  310.23    9.70
 -10   2  -4  305.91    9.53
 -10   2  -4  313.85    9.86
  12  -2   4   87.09    3.24
 -12  -2  -4   86.96    3.10
 -12  -2  -4   86.18    3.46
  12   2   4   88.77    3.26
 -12   2  -4   84.84    3.06
 -12   2  -4   84.83    3.41
 -14  -2  -4    0.74    0.35
 -14  -2  -4    0.82    0.63
 -14   2  -4    1.03    0.39
 -14   2  -4    0.67    0.57
 -16  -2  -4   66.31    3.22
 -16  -2  -4   66.21    2.64
 -16   2  -4   61.22    2.58
 -16   2  -4   61.02    3.08
 -18  -2  -4   28.60    2.51
 -18  -2  -4   27.65    1.69
 -18   2  -4   29.29    2.46
 -18   2  -4   26.50    1.95
 -20  -2  -4   44.90    3.53
 -20  -2  -4   40.93    3.08
 -20  -2  -4   39.90    2.24
 -20   2  -4   39.22    2.21
 -20   2  -4   38.45    2.99
 -22  -2  -4   14.98    1.82
 -22  -2  -4   24.53    3.36
 -22  -2  -4   24.12    3.74
  22   2   4   16.48    1.60
 -22   2  -4   14.04    1.86
 -22   2  -4   15.25    2.21
 -21  -3   4    5.32    1.04
 -21  -3   4    6.50    1.79
 -21  -3   4    5.85    1.59
  21   3  -4    6.75    0.94
 -21   3   4    6.07    1.06
 -21   3   4    3.96    1.22
 -21   3   4    4.47    1.57
 -19  -3   4   17.08    2.26
 -19  -3   4   14.44    1.35
 -19  -3   4   15.62    2.07
 -19   3   4   13.57    1.78
 -19   3   4   13.74    1.85
 -19   3   4   16.65    1.86
  19   3  -4   15.85    1.16
 -17  -3   4   65.53    2.75
 -17  -3   4   66.99    2.28
 -17  -3   4   67.53    3.27
 -17  -3   4   65.71    3.40
 -17   3   4   68.74    2.67
 -17   3   4   62.72    3.01
 -17   3   4   66.48    3.47
  17   3  -4   65.78    2.48
 -15  -3   4   52.13    2.68
 -15  -3   4   55.48    2.84
 -15  -3   4   53.84    2.28
 -15  -3   4   58.13    1.90
 -15   3   4   55.39    2.19
  15   3  -4   56.15    2.61
  15   3  -4   54.08    2.09
 -15   3   4   54.03    2.51
 -13  -3   4  134.28    4.92
 -13  -3   4  131.50    4.55
 -13  -3   4  132.67    5.04
 -13   3   4  134.93    4.72
  13   3  -4  135.21    4.40
  13   3  -4  135.04    4.74
 -13   3   4  137.94    4.43
 -11  -3   4  232.52    7.80
 -11  -3   4  231.65    7.37
 -11  -3   4  228.89    7.02
 -11  -3   4  232.79    7.69
 -11   3   4  231.46    7.21
  11   3  -4  223.68    7.24
 -11   3   4  238.21    7.48
  11   3  -4  245.93    7.56
  -9  -3   4    1.05    0.24
  -9  -3   4    0.85    0.12
  -9  -3   4    0.82    0.38
  -9  -3   4    0.40    0.28
   9   3  -4    0.76    0.33
  -9   3   4    1.07    0.23
  -9   3   4    0.56    0.16
  -9   3   4    0.85    0.27
   9   3  -4    0.66    0.21
  -7  -3   4   19.10    1.06
  -7  -3   4   18.07    0.85
  -7  -3   4   17.20    1.13
  -7  -3   4   19.50    0.61
  -7   3   4   19.13    0.74
   7   3  -4   19.63    0.99
   7   3  -4   17.33    0.83
  -7   3   4   18.00    0.84
   7   3  -4   17.79    0.89
  -7   3   4   19.19    0.70
  -5  -3   4   11.82    0.73
  -5  -3   4   12.15    0.69
   5  -3  -4   11.50    0.51
  -5  -3   4   12.01    0.80
  -5  -3   4   11.10    0.58
  -5   3   4   12.03    0.51
   5   3  -4   10.70    0.72
  -5   3   4   13.43    0.49
  -5   3   4   13.08    0.43
   5   3  -4   11.86    0.70
  -5   3   4   12.43    0.44
   5   3  -4   11.34    0.56
   5   3  -4   12.57    0.61
  -5   3   4   13.24    0.62
  -5   3   4   12.27    0.54
   5   3  -4   11.68    0.83
  -3  -3   4  148.55    4.55
  -3  -3   4  131.88    4.55
  -3  -3   4  143.06    4.66
   3  -3  -4  140.35    4.36
  -3  -3   4  134.62    4.43
   3  -3  -4  138.74    4.35
  -3  -3   4  142.14    4.41
   3   3  -4  139.35    4.42
  -3   3   4  138.70    4.29
  -3   3   4  137.18    4.54
   3   3  -4  144.24    4.56
  -3   3   4  148.49    4.36
  -3   3   4  152.25    4.36
   3   3  -4  146.19    4.44
   3   3  -4  151.05    4.58
   3   3  -4  145.07    4.25
  -3   3   4  140.89    4.29
   3   3  -4  149.79    4.67
  -1  -3   4   10.58    0.49
  -1  -3   4   10.28    0.54
  -1  -3   4   11.22    0.59
  -1  -3   4   10.17    0.63
   1  -3  -4    9.55    0.43
   1  -3  -4    9.82    0.40
  -1   3   4    9.12    0.51
  -1   3   4   11.13    0.41
   1   3  -4   10.00    0.58
  -1   3   4   10.53    0.39
  -1   3   4   10.57    0.45
   1   3  -4   10.26    0.49
   1   3  -4   10.29    0.39
  -1   3   4   10.05    0.50
  -1   3   4   10.02    0.45
   1   3  -4   11.11    0.69
   1   3  -4   10.51    0.50
   1   3  -4   11.15    0.61
   1  -3   4   84.55    2.80
  -1  -3  -4   85.51    2.63
   1  -3   4   87.76    3.14
  -1  -3  -4   86.86    2.80
   1  -3   4   88.70    2.74
  -1  -3  -4   83.63    2.62
  -1  -3  -4   86.63    2.73
   1  -3   4   85.35    2.64
   1  -3   4   89.01    2.86
  -1  -3  -4   79.88    2.69
  -1   3  -4   89.68    2.95
   1   3   4   85.62    2.65
   1   3   4   89.17    2.69
   1   3   4   85.50    2.79
  -1   3  -4   88.84    2.81
  -1   3  -4   81.54    2.74
  -1   3  -4   83.56    2.87
   1   3   4   87.11    2.82
  -3  -3  -4   84.70    2.75
  -3  -3  -4   80.64    2.61
   3  -3   4   81.98    2.81
   3  -3   4   79.67    2.54
  -3  -3  -4   81.40    2.74
   3  -3   4   84.18    2.79
   3  -3   4   86.53    2.65
  -3  -3  -4   80.37    2.59
  -3  -3  -4   78.62    2.60
   3  -3   4   79.49    2.72
  -3   3  -4   86.35    2.75
  -3   3  -4   84.65    2.86
  -3   3  -4   86.69    2.54
   3   3   4   82.86    2.63
  -3   3  -4   82.89    2.66
  -3   3  -4   80.51    2.80
   3   3   4   81.21    2.73
   3   3   4   75.98    2.89
   5  -3   4  408.55   12.37
   5  -3   4  366.45   12.07
  -5  -3  -4  417.13   12.36
   5  -3   4  408.37   12.19
  -5  -3  -4  441.60   12.16
  -5  -3  -4  402.59   12.38
  -5  -3  -4  372.61   12.18
   5  -3   4  394.32   12.31
  -5   3  -4  397.73   12.22
   5   3   4  402.76   12.42
  -5   3  -4  404.26   12.42
  -5   3  -4  425.12   12.37
   5   3   4  399.85   12.33
  -5   3  -4  428.97   12.09
   7  -3   4   66.65    2.52
  -7  -3  -4   70.25    2.61
  -7  -3  -4   70.05    2.39
   7   3   4   71.92    2.65
   7   3   4   68.27    2.51
  -7   3  -4   70.52    2.27
  -7   3  -4   70.74    2.42
  -9  -3  -4   73.02    2.81
   9  -3   4   68.09    2.61
  -9  -3  -4   70.79    2.52
  -9   3  -4   71.74    2.78
   9   3   4   73.40    2.66
  -9   3  -4   74.80    2.53
 -11  -3  -4   13.52    1.22
 -11  -3  -4   14.79    0.87
  11  -3   4   13.25    0.92
 -11   3  -4   15.17    0.85
  11   3   4   14.91    0.98
 -11   3  -4   14.08    1.10
 -13  -3  -4   27.67    1.80
 -13  -3  -4   27.55    1.36
  13  -3   4   25.16    1.41
 -13   3  -4   29.54    1.72
  13   3   4   27.14    1.45
 -13   3  -4   26.82    1.32
 -15  -3  -4   21.27    1.92
 -15  -3  -4   23.98    1.37
 -15   3  -4   23.38    1.78
 -15   3  -4   23.77    1.32
 -17  -3  -4    0.31    0.77
 -17  -3  -4    0.52    0.95
 -17   3  -4    1.30    0.89
 -17   3  -4    0.14    0.48
 -19  -3  -4   -0.37    0.56
 -19  -3  -4   -0.58    1.49
 -19  -3  -4    1.57    1.26
 -19   3  -4   -1.48    1.02
 -19   3  -4    0.93    0.64
 -21  -3  -4   18.34    2.61
 -21  -3  -4   16.47    1.71
 -21  -3  -4   17.74    2.29
  21  -3   4   20.45    1.54
  21   3   4   16.04    1.47
 -21   3  -4   18.81    2.28
 -21   3  -4   21.96    1.79
 -22  -4   4   34.58    3.64
 -22  -4   4   40.67    3.55
 -22  -4   4   33.82    2.31
 -22   4   4   35.85    2.78
 -22   4   4   34.53    3.43
 -20  -4   4    0.79    1.37
 -20  -4   4    0.37    1.22
 -20  -4   4    1.86    0.75
  20   4  -4    2.00    0.68
 -20   4   4    2.25    1.04
 -20   4   4    1.60    1.37
 -20   4   4    0.54    0.82
 -18  -4   4    5.27    1.52
 -18  -4   4    5.79    1.36
  18   4  -4    7.87    0.90
 -18   4   4    4.97    0.98
 -18   4   4    8.22    1.06
 -18   4   4    4.67    1.29
 -16  -4   4    7.19    0.56
 -16  -4   4    6.88    0.89
 -16  -4   4    7.50    1.20
 -16  -4   4    8.47    1.24
  16   4  -4    8.77    0.83
 -16   4   4    5.90    0.91
 -16   4   4    7.17    0.84
 -14  -4   4   12.12    1.40
 -14  -4   4   13.58    0.97
 -14  -4   4   11.43    0.61
 -14  -4   4   12.46    1.35
 -14   4   4   12.09    0.85
  14   4  -4   13.35    0.88
  14   4  -4   13.11    1.39
 -14   4   4   11.83    1.07
 -12  -4   4    0.43    0.46
 -12  -4   4    0.50    0.27
 -12  -4   4    0.54    0.16
 -12  -4   4    0.51    0.43
  12   4  -4    0.25    0.47
 -12   4   4    0.43    0.26
  12   4  -4    0.52    0.26
 -12   4   4    0.47    0.33
 -10  -4   4    7.19    0.85
 -10  -4   4    6.94    0.81
 -10  -4   4    7.32    0.60
 -10  -4   4    7.47    0.36
 -10   4   4    7.23    0.48
  10   4  -4    7.18    0.82
 -10   4   4    6.96    0.61
  10   4  -4    7.26    0.55
  -8  -4   4    1.20    0.42
  -8  -4   4    1.22    0.40
  -8  -4   4    0.97    0.24
  -8  -4   4    1.40    0.15
  -8   4   4    1.03    0.25
   8   4  -4    1.33    0.38
   8   4  -4    1.24    0.24
  -8   4   4    0.98    0.17
  -6  -4   4  103.35    3.10
  -6  -4   4   92.94    3.83
  -6  -4   4  100.11    3.55
  -6   4   4  106.31    3.24
  -6   4   4  112.99    3.10
  -6   4   4   99.13    3.20
   6   4  -4  101.02    3.46
  -6   4   4  103.95    3.11
   6   4  -4  103.55    3.52
   4  -4  -4   82.03    2.70
  -4  -4   4   83.49    2.77
   4  -4  -4   77.97    2.70
  -4  -4   4   82.99    2.80
  -4  -4   4   82.93    3.02
  -4  -4   4   86.15    2.96
  -4  -4   4   90.84    2.94
   4   4  -4   82.37    2.78
  -4   4   4   87.98    2.71
  -4   4   4   89.78    2.72
   4   4  -4   88.66    3.05
   4   4  -4   92.23    2.59
   4   4  -4   85.43    2.80
   4   4  -4   87.91    2.95
  -2  -4   4    0.52    0.16
  -2  -4   4    0.71    0.17
   2  -4  -4    0.77    0.12
  -2  -4   4    1.29    0.27
  -2  -4   4    0.64    0.24
   2  -4  -4    0.63    0.12
   2   4  -4    0.69    0.25
  -2   4   4    0.71    0.11
  -2   4   4    0.77    0.18
   2   4  -4    0.60    0.28
   2   4  -4    1.21    0.22
  -2   4   4    0.89    0.20
  -2   4   4    0.85    0.14
   2   4  -4    0.57    0.22
   2   4  -4    0.56    0.15
   2   4  -4    1.03    0.13
  -2   4   4    0.89    0.14
   0  -4  -4   65.84    1.90
   0  -4  -4   59.86    2.00
   0  -4   4   60.42    2.03
   0  -4   4   62.46    1.97
   0  -4   4   59.40    2.08
   0  -4   4   62.04    2.16
   0  -4  -4   59.61    1.95
   0  -4   4   57.37    2.22
   0   4  -4   63.40    1.96
   0   4  -4   62.87    2.27
   0   4   4   64.46    2.01
   0   4  -4   63.31    2.20
   0   4   4   60.52    1.96
   0   4   4   58.94    2.07
   0   4   4   65.18    1.96
   0   4   4   64.85    1.95
   0   4   4   61.31    2.05
   2  -4   4   71.68    2.31
   2  -4   4   72.45    2.59
  -2  -4  -4   72.02    2.37
   2  -4   4   74.20    2.39
  -2  -4  -4   71.41    2.30
  -2  -4  -4   75.29    2.47
  -2  -4  -4   71.99    2.31
  -2  -4  -4   75.74    2.43
   2  -4   4   74.71    2.46
   2  -4   4   74.92    2.53
  -2   4  -4   71.92    2.41
   2   4   4   74.97    2.37
  -2   4  -4   75.28    2.46
  -2   4  -4   73.28    2.56
  -2   4  -4   76.79    2.32
   2   4   4   71.60    2.46
   2   4   4   73.38    2.51
  -4  -4  -4    4.92    0.48
  -4  -4  -4    4.87    0.34
   4  -4   4    5.49    0.40
   4  -4   4    4.78    0.29
   4  -4   4    5.52    0.55
  -4  -4  -4    4.68    0.33
   4  -4   4    4.01    0.40
  -4  -4  -4    4.93    0.26
  -4  -4  -4    5.47    0.52
  -4   4  -4    5.00    0.31
  -4   4  -4    4.67    0.48
  -4   4  -4    4.70    0.36
  -4   4  -4    5.11    0.50
   4   4   4    4.57    0.40
   4   4   4    4.66    0.42
   4   4   4    5.05    0.51
   6  -4   4    2.76    0.25
  -6  -4  -4    1.66    0.32
  -6  -4  -4    2.83    0.34
  -6  -4  -4    2.81    0.45
  -6  -4  -4    3.33    0.30
   6  -4   4    2.74    0.40
  -6   4  -4    2.39    0.47
   6   4   4    2.88    0.41
  -6   4  -4    2.17    0.29
   6   4   4    2.86    0.49
  -8  -4  -4    0.81    0.37
  -8  -4  -4    0.91    0.23
   8  -4   4    0.72    0.29
   8   4   4    0.54    0.26
  -8   4  -4    0.65    0.19
   8   4   4    1.13    0.49
  -8   4  -4    0.54    0.31
 -10  -4  -4   44.22    1.73
 -10  -4  -4   43.71    2.05
  10  -4   4   40.25    1.77
 -10   4  -4   44.41    1.97
  10   4   4   41.98    1.81
 -10   4  -4   42.54    1.68
  12  -4   4   87.53    3.24
 -12  -4  -4   84.62    3.14
 -12  -4  -4   89.04    3.57
 -12   4  -4   89.19    3.13
  12   4   4   85.46    3.27
 -12   4  -4   93.40    3.52
 -14  -4  -4    7.18    0.80
 -14  -4  -4    9.58    1.42
 -14   4  -4    6.87    0.73
 -14   4  -4    5.89    0.98
 -16  -4  -4   37.90    1.89
 -16  -4  -4   39.58    2.27
 -16  -4  -4   39.86    2.64
 -16   4  -4   39.55    1.87
 -16   4  -4   38.30    2.33
 -18  -4  -4    2.57    1.31
 -18  -4  -4    2.62    0.66
 -18  -4  -4    2.73    1.14
 -18   4  -4    1.18    0.95
 -18   4  -4    2.61    0.64
 -20  -4  -4    2.40    1.74
 -20  -4  -4    3.81    0.72
 -20  -4  -4    2.71    0.82
 -20  -4  -4    1.41    1.81
 -20   4  -4    2.70    0.87
  20   4   4    3.02    0.77
 -20   4  -4    2.53    1.35
 -22  -4  -4   -0.53    0.94
 -22  -4  -4    0.65    0.74
 -22   4  -4   -0.15    1.61
 -22   4  -4    1.08    0.96
  22   4   4    1.81    0.84
 -21  -5   4    0.81    1.63
 -21  -5   4    2.56    0.89
 -21  -5   4    3.85    1.62
 -21   5   4    4.09    1.24
  21   5  -4    2.02    0.83
 -21   5   4    3.07    1.46
 -19  -5   4   -0.06    1.14
 -19  -5   4   -0.14    0.62
 -19  -5   4   -0.26    1.19
 -19   5   4    0.41    0.66
 -19   5   4   -0.25    0.83
  19   5  -4    0.43    0.56
 -19   5   4    1.00    1.20
 -17  -5   4    2.31    0.96
 -17  -5   4    1.05    0.97
 -17  -5   4    0.55    0.51
  17   5  -4    1.30    0.52
 -17   5   4    3.05    0.97
 -17   5   4    1.47    0.59
 -15  -5   4    0.65    0.27
 -15  -5   4    0.42    0.39
 -15  -5   4    0.13    0.72
 -15  -5   4    0.42    0.65
 -15   5   4   -0.01    0.47
  15   5  -4    1.36    0.41
  15   5  -4    0.14    0.84
 -15   5   4   -0.24    0.37
 -13  -5   4    3.16    0.79
 -13  -5   4    3.10    0.34
 -13  -5   4    2.21    0.67
 -13  -5   4    3.62    0.54
  13   5  -4    4.04    0.58
  13   5  -4    3.84    0.83
 -13   5   4    3.16    0.47
 -13   5   4    3.99    0.62
 -11  -5   4    5.29    0.33
 -11  -5   4    4.77    0.72
 -11  -5   4    5.76    0.89
 -11  -5   4    4.41    0.57
 -11   5   4    5.12    0.43
  11   5  -4    4.45    0.53
  11   5  -4    5.46    0.80
 -11   5   4    4.48    0.60
  -9  -5   4    3.89    0.63
  -9  -5   4    3.86    0.25
  -9  -5   4    2.41    0.50
  -9  -5   4    4.15    0.46
  -9   5   4    3.81    0.43
   9   5  -4    3.68    0.61
  -9   5   4    3.73    0.32
   9   5  -4    3.92    0.45
  -7  -5   4    0.82    0.12
  -7  -5   4    0.36    0.29
  -7  -5   4    0.71    0.23
  -7  -5   4    0.78    0.47
  -7   5   4    0.55    0.11
   7   5  -4    0.78    0.29
  -7   5   4    0.62    0.18
   7   5  -4    0.77    0.21
  -5  -5   4   34.06    1.49
   5  -5  -4   33.48    1.24
   5  -5  -4   34.89    1.24
  -5  -5   4   34.54    1.11
  -5  -5   4   33.12    1.59
   5   5  -4   34.78    1.32
   5   5  -4   33.99    1.48
   5   5  -4   33.80    1.53
  -3  -5   4   30.04    1.26
   3  -5  -4   28.14    1.06
   3  -5  -4   29.30    1.06
  -3  -5   4   29.39    1.35
  -3   5   4   28.98    1.07
   3   5  -4   28.17    1.36
   3   5  -4   30.91    0.97
  -3   5   4   30.42    1.06
   3   5  -4   27.66    1.27
   3   5  -4   30.11    1.30
   1  -5  -4   40.73    1.38
   1  -5  -4   40.73    1.41
  -1  -5   4   44.16    1.62
  -1  -5   4   40.49    1.39
  -1  -5   4   38.88    1.66
  -1  -5   4   41.89    1.46
  -1  -5   4   40.56    1.47
  -1   5   4   41.75    1.48
   1   5  -4   41.72    1.62
  -1   5   4   40.46    1.42
   1   5  -4   40.92    1.71
   1   5  -4   43.94    1.64
   1   5  -4   43.23    1.35
  -1   5   4   42.65    1.39
   1   5  -4   38.68    1.47
   1   5  -4   39.85    1.47
  -1   5   4   41.17    1.31
  -1   5   4   40.68    1.42
  -1   5   4   41.09    1.40
  -1  -5  -4    8.54    0.31
  -1  -5  -4    8.18    0.40
   1  -5   4    8.90    0.48
   1  -5   4    8.08    0.49
   1  -5   4    8.72    0.62
   1  -5   4    8.60    0.41
  -1  -5  -4    8.43    0.43
  -1  -5  -4    8.08    0.44
  -1  -5  -4    8.59    0.51
  -1   5  -4    8.33    0.48
   1   5   4    8.66    0.43
   1   5   4    8.19    0.48
  -1   5  -4    8.52    0.49
   1   5   4    8.56    0.54
   1   5   4    8.80    0.49
  -1   5  -4    8.03    0.59
  -1   5  -4    8.70    0.43
  -1   5  -4    7.97    0.73
   3  -5   4   27.44    1.10
   3  -5   4   28.08    1.00
   3  -5   4   27.81    1.06
  -3  -5  -4   29.10    1.32
  -3  -5  -4   27.50    1.00
  -3  -5  -4   26.84    0.98
  -3  -5  -4   28.39    1.15
   3  -5   4   26.26    1.25
  -3  -5  -4   26.87    1.04
  -3   5  -4   27.71    1.00
   3   5   4   28.20    1.07
  -3   5  -4   28.65    1.09
  -3   5  -4   26.28    1.22
  -3   5  -4   29.78    1.15
   3   5   4   27.80    1.12
   3   5   4   28.15    1.23
  -5  -5  -4    0.08    0.23
  -5  -5  -4    0.46    0.14
   5  -5   4    0.45    0.21
  -5  -5  -4    0.55    0.17
   5  -5   4    0.09    0.11
  -5  -5  -4    0.83    0.35
   5   5   4    0.70    0.24
  -5   5  -4    0.56    0.21
  -5   5  -4    0.40    0.18
   5   5   4    1.15    0.36
  -5   5  -4    0.34    0.28
  -5   5  -4    0.13    0.30
  -7  -5  -4   21.36    0.92
  -7  -5  -4   21.89    1.19
   7  -5   4   20.21    1.06
  -7  -5  -4   21.81    0.97
  -7  -5  -4   23.10    0.91
  -7  -5  -4   22.82    0.91
  -7   5  -4   22.49    1.18
   7   5   4   21.50    1.06
   7   5   4   21.23    1.27
  -7   5  -4   21.60    0.97
  -9  -5  -4    3.27    0.63
   9  -5   4    2.51    0.41
  -9  -5  -4    3.39    0.46
  -9  -5  -4    3.14    0.50
  -9  -5  -4    3.04    0.36
  -9   5  -4    3.61    0.59
  -9   5  -4    4.03    0.43
   9   5   4    2.06    0.37
 -11  -5  -4   28.75    1.78
 -11  -5  -4   29.89    1.44
  11  -5   4   30.15    1.46
 -11  -5  -4   30.05    1.37
 -11  -5  -4   29.24    1.25
 -11   5  -4   27.28    1.58
 -11   5  -4   29.05    1.32
  11   5   4   30.48    1.48
 -13  -5  -4    2.08    0.77
 -13  -5  -4    2.40    0.37
 -13  -5  -4    3.25    0.53
 -13  -5  -4    2.26    0.64
 -13   5  -4    2.55    0.62
 -13   5  -4    2.84    0.48
 -15  -5  -4   17.14    0.99
 -15  -5  -4   18.95    1.57
 -15  -5  -4   16.88    1.18
 -15  -5  -4   17.63    1.86
 -15   5  -4   16.66    1.60
 -15   5  -4   16.74    1.12
 -17  -5  -4    0.64    1.07
 -17  -5  -4    1.71    1.30
 -17  -5  -4    0.47    0.51
 -17  -5  -4    1.29    0.45
 -17   5  -4    1.39    0.56
 -17   5  -4    1.88    1.24
 -19  -5  -4    4.67    1.84
 -19  -5  -4    2.83    0.62
 -19  -5  -4    4.86    1.49
 -19  -5  -4    1.96    0.75
 -19   5  -4    3.73    0.84
 -19   5  -4    3.16    1.26
 -21  -5  -4    3.93    0.95
 -21  -5  -4    3.19    0.78
 -21   5  -4    0.17    0.92
 -21   5  -4    0.79    1.41
  21   5   4    2.91    0.80
 -22  -6   4    7.53    2.14
 -22  -6   4   11.38    2.34
 -22  -6   4    9.02    1.32
  22   6  -4   10.02    1.19
 -22   6   4    7.84    2.06
 -22   6   4    8.51    1.56
 -20  -6   4   -0.37    1.43
 -20  -6   4    3.47    1.61
 -20  -6   4   -0.96    0.78
 -20   6   4    0.94    1.45
 -20   6   4    2.21    0.99
  20   6  -4   -0.46    0.67
 -18  -6   4   -0.67    0.55
 -18  -6   4   -0.40    1.14
 -18   6   4    0.59    0.82
  18   6  -4    0.94    0.56
 -18   6   4    2.06    0.64
 -16  -6   4    2.44    0.95
 -16  -6   4    4.11    0.73
 -16  -6   4    4.27    0.51
 -16  -6   4    3.07    0.99
  16   6  -4    5.82    0.84
 -16   6   4    4.94    0.68
 -16   6   4    3.88    0.80
 -14  -6   4   67.21    3.18
 -14  -6   4   71.05    3.22
 -14  -6   4   70.05    2.76
 -14   6   4   64.41    2.75
  14   6  -4   68.45    2.64
 -14   6   4   71.44    2.52
 -12  -6   4    2.62    0.71
 -12  -6   4    1.83    0.43
 -12  -6   4    2.02    0.66
 -12  -6   4    1.62    0.24
  12   6  -4    1.55    0.38
  12   6  -4    2.25    0.76
 -12   6   4    1.76    0.30
 -12   6   4    0.65    0.38
 -10  -6   4   25.41    0.90
 -10  -6   4   23.87    1.20
 -10  -6   4   24.69    1.52
 -10  -6   4   24.74    1.53
  10   6  -4   23.74    1.16
  10   6  -4   26.10    1.52
 -10   6   4   24.45    1.13
 -10   6   4   25.33    0.97
  -8  -6   4   17.76    0.67
  -8  -6   4   17.40    1.17
  -8  -6   4   17.40    0.93
  -8  -6   4   17.85    1.20
   8   6  -4   16.88    0.90
  -8   6   4   17.03    0.77
  -8   6   4   18.24    0.66
   8   6  -4   17.78    1.15
  -6  -6   4   14.50    0.78
  -6  -6   4   15.51    1.03
   6  -6  -4   15.08    0.71
  -6  -6   4   15.39    1.00
   6  -6  -4   15.20    0.73
  -6  -6   4   14.99    0.59
  -6   6   4   14.64    0.57
   6   6  -4   15.14    0.78
   6   6  -4   15.60    0.98
  -4  -6   4    5.86    0.33
  -4  -6   4    6.09    0.47
   4  -6  -4    5.24    0.55
   4   6  -4    6.11    0.70
   4   6  -4    7.32    0.35
   4   6  -4    6.58    0.48
   4   6  -4    6.49    0.63
   2  -6  -4    0.51    0.16
  -2  -6   4    0.50    0.14
   2  -6  -4    0.83    0.16
  -2  -6   4    0.56    0.30
  -2  -6   4    0.69    0.20
  -2   6   4    0.26    0.16
   2   6  -4    1.56    0.34
  -2   6   4    0.62    0.15
  -2   6   4    0.44    0.17
   2   6  -4    1.00    0.16
   2   6  -4    1.04    0.35
   0  -6  -4    8.23    0.44
   0  -6  -4    8.14    0.54
   0  -6   4    9.22    0.52
   0  -6   4    8.52    0.69
   0  -6   4    8.41    0.49
   0  -6   4    8.24    0.44
   0   6   4    8.67    0.53
   0   6  -4    8.61    0.65
   0   6   4    8.72    0.39
   0   6   4    9.02    0.46
   0   6   4    8.21    0.48
   0   6  -4    8.88    0.44
   0   6   4    9.22    0.43
   0   6  -4    8.39    0.51
   0   6  -4    9.39    0.69
   2  -6   4    8.60    0.81
   2  -6   4   10.77    0.58
  -2  -6  -4   11.66    0.59
   2  -6   4   10.01    0.56
   2  -6   4   11.29    0.52
  -2  -6  -4   10.53    0.44
  -2  -6  -4   10.94    0.56
  -2  -6  -4   11.13    0.51
  -2  -6  -4   11.63    0.63
  -2   6  -4    9.89    0.55
  -2   6  -4   11.23    0.75
  -2   6  -4   10.63    0.54
   2   6   4   11.72    0.58
  -2   6  -4   11.66    0.61
   2   6   4   10.67    0.58
  -2   6  -4   10.83    0.59
   2   6   4   11.38    0.70
  -4  -6  -4  123.25    3.86
   4  -6   4  114.72    3.70
   4  -6   4  112.97    3.73
  -4  -6  -4  116.62    3.69
  -4  -6  -4  113.44    3.74
  -4  -6  -4  119.94    3.71
   4  -6   4  116.44    3.80
  -4   6  -4  115.99    3.99
   4   6   4  117.44    3.83
   4   6   4  124.24    4.03
  -4   6  -4  121.91    3.84
   6  -6   4   75.44    2.59
   6  -6   4   72.30    2.58
  -6  -6  -4   75.35    2.53
  -6  -6  -4   76.01    2.52
  -6  -6  -4   76.94    2.76
   6  -6   4   76.18    2.48
  -6   6  -4   73.82    2.56
  -6   6  -4   73.65    2.77
   6   6   4   72.84    2.62
   6   6   4   77.55    2.88
  -8  -6  -4   60.61    2.24
  -8  -6  -4   56.70    2.06
  -8  -6  -4   58.49    2.40
  -8  -6  -4   60.56    2.02
   8  -6   4   57.84    2.19
   8  -6   4   60.61    2.04
  -8   6  -4   58.49    2.14
  -8   6  -4   56.46    2.36
   8   6   4   63.66    2.58
   8   6   4   56.63    2.21
 -10  -6  -4    1.57    0.56
 -10  -6  -4    3.36    0.51
 -10  -6  -4    1.73    0.42
 -10  -6  -4    2.10    0.34
  10  -6   4    2.27    0.45
 -10   6  -4    2.58    0.54
  10   6   4    1.94    0.41
 -10   6  -4    2.26    0.36
 -12  -6  -4    1.05    0.74
 -12  -6  -4    0.84    0.26
 -12  -6  -4   -0.13    0.31
 -12   6  -4   -0.03    0.43
 -12   6  -4    0.33    0.29
 -14  -6  -4    2.09    0.90
 -14  -6  -4    0.94    0.31
 -14  -6  -4    0.45    0.39
 -14  -6  -4    0.81    0.66
 -14   6  -4   -0.53    0.55
 -14   6  -4    0.34    0.37
 -16  -6  -4   -0.02    0.91
 -16  -6  -4    0.47    0.38
 -16  -6  -4   -0.23    1.09
 -16   6  -4    0.23    0.81
 -16   6  -4    0.57    0.45
 -18  -6  -4    1.78    0.54
 -18  -6  -4    2.64    1.70
 -18  -6  -4    2.53    0.73
 -18   6  -4    1.45    1.01
 -18   6  -4    2.11    0.69
 -20  -6  -4    7.28    0.88
 -20  -6  -4    7.52    1.13
 -20   6  -4    5.78    1.50
 -20   6  -4    6.18    1.07
  20   6   4    5.64    0.91
 -21  -7   4   33.65    2.29
 -21  -7   4   36.37    3.74
 -21  -7   4   32.76    3.77
  21   7  -4   35.24    2.08
 -21   7   4   31.17    2.56
 -21   7   4   32.68    3.39
 -19  -7   4   71.08    4.14
 -19  -7   4   69.35    3.18
 -19  -7   4   69.02    4.01
 -19   7   4   73.29    3.38
  19   7  -4   71.82    2.95
 -17  -7   4    2.35    1.18
 -17  -7   4    1.01    1.16
 -17  -7   4    0.93    0.61
 -17   7   4    0.81    0.72
  17   7  -4    0.70    0.54
 -17   7   4    1.58    0.70
 -15  -7   4    3.98    0.49
 -15  -7   4    1.87    0.96
 -15  -7   4    3.48    0.66
 -15  -7   4    1.94    0.98
 -15   7   4    3.14    0.55
 -15   7   4    2.38    0.63
  15   7  -4    1.79    1.03
  15   7  -4    3.23    0.56
 -13  -7   4    1.52    0.45
 -13  -7   4    0.98    0.79
 -13  -7   4    1.41    0.73
 -13  -7   4    1.59    0.32
  13   7  -4    1.75    0.44
  13   7  -4    1.07    0.79
 -13   7   4    2.00    0.38
 -13   7   4    1.58    0.47
 -11  -7   4   35.22    1.96
 -11  -7   4   31.23    1.18
 -11  -7   4   34.09    1.89
 -11  -7   4   34.38    1.57
 -11   7   4   34.52    1.27
  11   7  -4   33.23    1.51
 -11   7   4   31.69    1.44
  11   7  -4   32.45    1.93
  -9  -7   4   27.76    1.00
  -9  -7   4   25.76    1.58
  -9  -7   4   27.57    1.30
  -9  -7   4   26.56    1.57
   9   7  -4   28.42    1.64
  -9   7   4   28.05    1.00
  -9   7   4   28.20    1.14
   9   7  -4   27.38    1.28
  -7  -7   4  157.18    5.06
  -7  -7   4  155.98    4.76
  -7  -7   4  154.70    5.33
   7  -7  -4  156.05    4.94
   7   7  -4  155.06    5.04
  -7   7   4  157.94    4.68
  -7   7   4  151.79    4.76
   5  -7  -4    2.19    0.31
  -5  -7   4    2.17    0.44
  -5  -7   4    2.81    0.25
   5  -7  -4    2.37    0.31
  -5  -7   4    3.25    0.55
  -5  -7   4    2.53    0.39
   5   7  -4    2.41    0.30
   5   7  -4    2.49    0.37
   5   7  -4    2.54    0.54
  -3  -7   4  418.32   12.73
  -3  -7   4  423.14   13.08
   3  -7  -4  404.34   12.73
  -3  -7   4  427.18   12.76
  -3  -7   4  413.55   12.66
   3  -7  -4  406.41   12.71
   3   7  -4  438.56   12.62
  -3   7   4  443.85   12.53
  -3   7   4  410.37   12.73
   3   7  -4  419.24   13.09
   3   7  -4  414.37   12.81
  -3   7   4  425.15   12.61
   3   7  -4  448.38   13.07
  -1  -7   4   26.17    1.17
  -1  -7   4   26.70    1.35
  -1  -7   4   28.89    1.10
   1  -7  -4   28.16    1.10
   1  -7  -4   28.35    1.11
   1   7  -4   28.94    1.17
   1   7  -4   29.11    1.37
  -1   7   4   28.04    1.09
  -1   7   4   29.76    1.05
   1   7  -4   29.21    1.05
  -1   7   4   31.65    1.01
  -1   7   4   28.33    1.11
   1  -7   4    2.47    0.42
  -1  -7  -4    3.26    0.31
  -1  -7  -4    4.01    0.35
   1  -7   4    3.53    0.34
  -1   7  -4    3.59    0.52
   1   7   4    3.18    0.44
   1   7   4    4.02    0.36
   1   7   4    3.36    0.33
  -1   7  -4    3.03    0.35
  -3  -7  -4    0.61    0.15
  -3  -7  -4    0.57    0.18
  -3  -7  -4    0.56    0.29
  -3  -7  -4    0.35    0.19
   3  -7   4    0.48    0.22
   3  -7   4    0.37    0.16
   3  -7   4    0.63    0.20
   3  -7   4    0.54    0.27
   3   7   4    0.60    0.30
  -3   7  -4    0.37    0.18
  -3   7  -4    0.03    0.21
   3   7   4    0.64    0.19
  -3   7  -4    0.06    0.22
   5  -7   4   62.72    2.23
  -5  -7  -4   69.76    2.41
   5  -7   4   65.86    2.18
  -5  -7  -4   63.76    2.17
  -5  -7  -4   66.67    2.22
  -5  -7  -4   63.88    2.33
   5  -7   4   61.44    2.18
  -5  -7  -4   57.36    2.26
  -5   7  -4   64.59    2.46
   5   7   4   71.01    2.58
  -5   7  -4   65.69    2.30
   5   7   4   62.11    2.38
  -5   7  -4   62.60    2.24
  -7  -7  -4  101.58    3.31
  -7  -7  -4  104.48    3.58
  -7  -7  -4   98.79    3.29
   7  -7   4   92.15    3.35
   7  -7   4   99.95    3.24
   7   7   4  101.31    3.74
  -7   7  -4   98.51    3.33
  -7   7  -4  101.49    3.60
   7   7   4   97.69    3.38
  -9  -7  -4    7.87    0.98
  -9  -7  -4    7.48    0.56
   9  -7   4    7.81    0.54
   9  -7   4    8.84    0.73
  -9  -7  -4    7.03    0.60
  -9  -7  -4    8.55    0.65
  -9   7  -4    7.18    0.83
  -9   7  -4    8.19    0.61
   9   7   4    7.26    0.68
 -11  -7  -4    4.36    0.48
 -11  -7  -4    3.18    0.48
 -11  -7  -4    3.66    0.56
 -11  -7  -4    3.41    0.78
 -11   7  -4    3.47    0.52
 -11   7  -4    3.10    0.64
 -13  -7  -4   64.56    2.53
 -13  -7  -4   66.40    3.08
 -13  -7  -4   63.13    2.36
 -13  -7  -4   63.35    2.64
 -13   7  -4   65.04    2.48
 -13   7  -4   60.51    2.83
 -15  -7  -4  114.07    4.27
 -15  -7  -4  112.59    4.10
 -15  -7  -4  113.48    4.76
 -15  -7  -4  113.08    3.88
 -15   7  -4  112.64    4.52
 -15   7  -4  110.91    4.02
 -17  -7  -4    2.30    0.67
 -17  -7  -4    1.08    1.51
 -17  -7  -4    2.86    0.58
 -17   7  -4    3.88    1.09
 -19  -7  -4    2.90    0.69
 -19  -7  -4    2.45    0.84
 -19   7  -4    3.33    0.86
 -19   7  -4    2.46    1.21
  19   7   4    1.53    0.67
 -21  -7  -4    3.86    1.06
 -21  -7  -4    4.92    0.85
  21   7   4    3.79    0.92
 -21   7  -4    3.42    1.05
 -21   7  -4    4.21    1.62
 -20  -8   4    8.18    1.19
 -20  -8   4    8.64    2.21
 -20  -8   4    8.18    2.06
  20   8  -4    8.90    1.14
 -20   8   4   10.15    1.44
 -20   8   4    8.49    1.88
 -18  -8   4   -0.74    0.65
 -18  -8   4    0.30    1.36
 -18  -8   4    0.31    1.59
  18   8  -4   -0.12    0.59
 -18   8   4    0.78    0.80
 -16  -8   4   50.70    2.37
 -16  -8   4   53.90    3.01
 -16  -8   4   54.42    3.15
  16   8  -4   51.34    2.29
 -16   8   4   42.97    2.45
 -14  -8   4   73.44    2.97
 -14  -8   4   73.73    3.42
 -14  -8   4   77.40    2.49
 -14  -8   4   74.09    3.51
 -14   8   4   72.17    2.91
 -14   8   4   76.28    2.70
  14   8  -4   74.36    3.49
  14   8  -4   73.78    2.90
 -12  -8   4   21.47    1.65
 -12  -8   4   21.29    1.27
 -12  -8   4   21.81    1.73
 -12   8   4   22.46    0.99
  12   8  -4   20.75    1.70
 -12   8   4   21.82    1.18
  12   8  -4   21.57    1.22
 -10  -8   4    0.64    0.60
 -10  -8   4    0.75    0.21
 -10  -8   4    0.41    0.53
 -10  -8   4    0.74    0.33
  10   8  -4    1.07    0.36
 -10   8   4    0.62    0.21
 -10   8   4    0.87    0.30
  10   8  -4    1.48    0.63
  -8  -8   4   75.17    2.43
  -8  -8   4   74.73    2.73
  -8  -8   4   73.11    3.02
   8  -8  -4   76.66    2.62
  -8  -8   4   73.37    2.99
   8   8  -4   73.35    3.03
   8   8  -4   73.82    2.72
  -8   8   4   74.86    2.45
  -8   8   4   78.46    2.36
   6  -8  -4   69.19    2.40
  -6  -8   4   69.72    2.75
   6  -8  -4   68.26    2.38
  -6  -8   4   67.65    2.48
  -6  -8   4   68.17    2.26
  -6  -8   4   68.47    2.74
  -6   8   4   73.25    2.13
  -6   8   4   66.07    2.18
   6   8  -4   68.16    2.76
   6   8  -4   71.31    2.51
   4  -8  -4  119.77    3.89
  -4  -8   4  121.39    3.90
   4  -8  -4  123.52    3.92
  -4  -8   4  119.36    4.24
  -4  -8   4  117.00    3.90
  -4  -8   4  120.16    3.81
  -4   8   4  119.37    3.73
   4   8  -4  121.89    3.78
   4   8  -4  122.63    4.25
  -4   8   4  119.96    3.75
  -4   8   4  126.05    3.67
   4   8  -4  125.32    4.00
  -4   8   4  119.59    3.87
  -2  -8   4    5.61    0.68
  -2  -8   4    6.28    0.46
   2  -8  -4    6.32    0.45
   2  -8  -4    5.86    0.44
  -2  -8   4    6.67    0.44
   2   8  -4    6.38    0.49
  -2   8   4    6.33    0.37
   2   8  -4    6.37    0.49
   2   8  -4    6.11    0.68
  -2   8   4    6.84    0.52
  -2   8   4    6.25    0.45
  -2   8   4    6.79    0.43
   2   8  -4    6.14    0.78
   0  -8  -4   87.43    2.93
   0  -8  -4   89.48    2.97
   0  -8   4   86.07    3.24
   0  -8   4   91.10    2.89
   0  -8   4   89.43    2.93
   0   8  -4   90.08    3.02
   0   8   4   90.01    2.89
   0   8   4   94.51    2.81
   0   8  -4   88.99    3.22
   0   8  -4   90.71    3.23
   0   8   4   90.35    2.88
   0   8   4   90.88    3.04
   2  -8   4  241.42    7.47
   2  -8   4  246.60    7.82
   2  -8   4  238.68    7.42
  -2  -8  -4  243.51    7.51
  -2  -8  -4  234.77    7.45
  -2  -8  -4  254.68    7.43
  -2  -8  -4  253.09    7.46
  -2   8  -4  239.10    7.55
   2   8   4  239.65    7.45
   2   8   4  250.52    7.71
  -2   8  -4  238.45    7.77
  -4  -8  -4   21.65    0.88
  -4  -8  -4   20.95    1.08
   4  -8   4   21.78    0.94
  -4  -8  -4   24.92    1.15
  -4  -8  -4   21.99    0.97
   4  -8   4   22.26    0.95
  -4  -8  -4   22.11    0.95
  -4   8  -4   23.52    1.01
  -4   8  -4   22.00    1.00
   4   8   4   21.90    0.97
  -4   8  -4   22.10    1.19
   4   8   4   25.33    1.31
  -6  -8  -4   18.44    1.14
  -6  -8  -4   18.52    0.87
  -6  -8  -4   18.29    0.86
  -6  -8  -4   18.36    0.88
   6  -8   4   18.19    0.90
   6  -8   4   18.36    0.85
   6   8   4   21.68    1.35
  -6   8  -4   20.16    1.16
  -6   8  -4   18.61    0.92
  -6   8  -4   18.55    1.17
   6   8   4   16.54    0.94
  -8  -8  -4   48.60    1.86
  -8  -8  -4   50.30    2.22
  -8  -8  -4   48.76    1.83
   8  -8   4   49.16    1.81
   8  -8   4   49.19    1.90
   8   8   4   47.38    2.43
  -8   8  -4   50.16    2.18
  -8   8  -4   51.05    1.90
   8   8   4   46.28    1.92
 -10  -8  -4   40.92    2.12
 -10  -8  -4   40.38    1.50
  10  -8   4   41.79    1.60
 -10  -8  -4   41.02    1.70
 -10  -8  -4   38.45    1.59
 -10   8  -4   38.99    1.66
 -10   8  -4   38.43    1.96
 -12  -8  -4   46.86    1.94
 -12  -8  -4   45.45    1.86
 -12  -8  -4   47.85    2.01
 -12  -8  -4   45.80    2.60
 -12   8  -4   46.90    2.30
 -12   8  -4   49.15    1.98
 -14  -8  -4    4.44    0.69
 -14  -8  -4    3.50    1.19
 -14  -8  -4    3.99    0.57
 -14   8  -4    3.32    0.57
 -14   8  -4    4.53    0.90
 -16  -8  -4   35.17    1.89
 -16  -8  -4   30.60    1.95
 -16   8  -4   35.53    2.30
 -16   8  -4   35.98    1.83
 -18  -8  -4   77.84    3.29
 -18  -8  -4   79.62    3.04
  18   8   4   76.05    3.17
 -18   8  -4   83.60    3.59
 -18   8  -4   72.34    3.83
 -20  -8  -4   21.41    1.95
 -20  -8  -4   24.00    1.66
 -20   8  -4   20.51    2.61
 -20   8  -4   23.71    1.93
  20   8   4   23.02    1.74
 -19  -9   4   41.53    2.53
 -19  -9   4   47.00    3.96
 -19  -9   4   50.28    3.75
 -19   9   4   48.88    2.68
  19   9  -4   48.79    2.40
 -17  -9   4   84.56    3.61
 -17  -9   4   88.43    4.37
 -17  -9   4   86.00    4.76
  17   9  -4   93.14    3.50
 -17   9   4   90.55    3.64
 -15  -9   4    3.13    1.03
 -15  -9   4    4.38    1.25
 -15  -9   4    2.14    0.60
  15   9  -4    1.16    0.54
 -15   9   4    2.31    0.76
  15   9  -4    1.13    1.20
 -13  -9   4    5.37    1.03
 -13  -9   4    5.56    0.55
 -13  -9   4    6.09    0.84
 -13  -9   4    5.96    1.13
  13   9  -4    5.86    0.81
 -13   9   4    4.88    0.67
  13   9  -4    6.59    1.15
 -13   9   4    4.76    0.67
 -11  -9   4   85.36    2.79
 -11  -9   4   84.36    3.50
 -11  -9   4   81.36    3.16
 -11  -9   4   88.43    3.66
  11   9  -4   84.09    3.60
 -11   9   4   88.57    2.80
 -11   9   4   82.88    2.96
  11   9  -4   84.33    3.16
  -9  -9   4  167.76    5.52
  -9  -9   4  162.71    5.81
  -9  -9   4  164.62    5.87
   9  -9  -4  166.51    5.39
   9   9  -4  165.21    5.52
   9   9  -4  164.16    5.88
  -9   9   4  166.31    5.23
  -9   9   4  175.71    5.12
   7  -9  -4   40.17    1.53
  -7  -9   4   37.29    1.39
  -7  -9   4   37.80    1.62
  -7  -9   4   37.16    1.88
  -7   9   4   39.43    1.27
   7   9  -4   35.97    1.61
   7   9  -4   39.76    1.96
  -7   9   4   37.36    1.34
  -5  -9   4   41.96    1.58
  -5  -9   4   39.55    1.48
   5  -9  -4   41.54    1.56
  -5  -9   4   41.39    1.92
   5  -9  -4   38.56    1.57
  -5   9   4   39.82    1.38
  -5   9   4   41.85    1.32
   5   9  -4   39.84    1.65
   5   9  -4   40.20    1.93
  -5   9   4   40.47    1.41
  -5   9   4   41.30    1.51
   3  -9  -4  145.05    4.75
  -3  -9   4  146.25    4.61
   3  -9  -4  145.07    4.70
  -3  -9   4  146.48    4.68
  -3  -9   4  145.09    5.00
  -3   9   4  145.51    4.61
  -3   9   4  144.39    4.57
   3   9  -4  143.64    4.76
  -3   9   4  149.61    4.50
   3   9  -4  145.15    5.03
  -3   9   4  148.41    4.48
   3   9  -4  165.42    5.65
  -3   9   4  142.17    4.56
  -3   9   4  145.21    4.72
  -1  -9   4  177.97    5.93
  -1  -9   4  181.49    5.48
  -1  -9   4  182.90    5.60
   1  -9  -4  175.87    5.61
   1  -9  -4  179.15    5.58
  -1   9   4  176.62    5.48
   1   9  -4  168.58    5.66
  -1   9   4  186.63    5.53
   1   9  -4  176.05    5.93
  -1   9   4  176.06    5.48
   1   9  -4  179.84    5.93
  -1   9   4  178.34    5.64
   1  -9   4   49.40    1.80
  -1  -9  -4   51.32    1.80
   1  -9   4   50.63    1.69
  -1  -9  -4   50.11    1.83
   1  -9   4   49.52    2.11
   1   9   4   52.56    2.00
  -1   9  -4   51.52    1.89
  -1   9  -4   50.70    2.08
  -1   9  -4   49.71    2.13
   1   9   4   48.38    1.71
  -3  -9  -4   51.77    1.88
  -3  -9  -4   51.88    1.87
  -3  -9  -4   51.48    1.83
  -3  -9  -4   50.91    1.82
   3  -9   4   52.71    1.84
   3  -9   4   50.07    1.74
  -3   9  -4   50.37    2.12
  -3   9  -4   50.63    1.90
   3   9   4   48.76    1.77
   3   9   4   52.33    2.13
  -5  -9  -4   64.56    2.31
  -5  -9  -4   64.14    2.27
   5  -9   4   65.57    2.28
   5  -9   4   64.01    2.23
  -5  -9  -4   69.80    2.51
  -5  -9  -4   63.47    2.39
  -5  -9  -4   65.63    2.22
  -5   9  -4   66.42    2.60
  -5   9  -4   65.10    2.36
  -5   9  -4   66.62    2.32
   5   9   4   63.64    2.29
   5   9   4   72.21    2.77
  -7  -9  -4  191.44    5.90
  -7  -9  -4  189.68    5.89
  -7  -9  -4  188.13    5.93
   7  -9   4  166.93    6.01
   7  -9   4  188.23    5.89
  -7  -9  -4  190.96    6.18
   7   9   4  183.67    5.95
  -7   9  -4  185.09    5.97
  -7   9  -4  182.35    6.24
   7   9   4  200.86    6.49
  -9  -9  -4   95.91    3.32
  -9  -9  -4   97.64    3.34
   9  -9   4  101.00    3.34
  -9  -9  -4   97.33    3.38
  -9  -9  -4  101.29    3.79
  -9   9  -4  100.25    3.42
  -9   9  -4   95.13    3.72
 -11  -9  -4   39.60    2.35
 -11  -9  -4   40.69    1.66
 -11  -9  -4   40.62    1.76
 -11   9  -4   40.94    1.75
 -11   9  -4   38.35    2.03
 -13  -9  -4  135.86    6.24
 -13  -9  -4  122.99    4.21
 -13  -9  -4  122.55    4.35
 -13   9  -4  123.33    4.32
 -13   9  -4  119.86    4.71
 -15  -9  -4   90.29    3.59
 -15   9  -4   94.91    4.05
 -15   9  -4   98.99    3.59
 -17  -9  -4    8.21    1.03
 -17  -9  -4    8.83    1.10
 -17   9  -4   11.11    1.29
 -17   9  -4    8.40    1.37
  17   9   4   10.24    1.12
 -19  -9  -4    4.86    1.03
 -19  -9  -4    3.87    0.82
 -19   9  -4    4.90    1.04
 -19   9  -4    6.58    1.47
  19   9   4    3.87    0.84
 -18 -10   4    9.53    2.12
 -18 -10   4   10.46    1.48
 -18 -10   4    9.90    1.89
  18  10  -4   10.72    1.39
 -18  10   4    9.58    1.26
 -16 -10   4   62.18    3.71
 -16 -10   4   63.98    2.83
 -16 -10   4   59.96    3.85
  16  10  -4   63.86    2.72
 -16  10   4   62.30    2.75
 -14 -10   4  220.45    7.65
 -14 -10   4  230.65    7.94
 -14 -10   4  198.08    7.18
 -14  10   4  215.49    7.07
  14  10  -4  210.28    7.18
  14  10  -4  222.51    7.87
 -12 -10   4   87.66    3.82
 -12 -10   4   81.33    3.55
 -12 -10   4   85.73    2.78
 -12 -10   4   79.10    3.17
 -12  10   4   84.60    3.00
  12  10  -4   80.49    3.17
  12  10  -4   81.35    3.69
 -10 -10   4    4.44    0.81
 -10 -10   4    3.12    0.52
  10 -10  -4    4.96    0.61
 -10 -10   4    3.97    0.92
 -10 -10   4    4.06    0.47
  10  10  -4    4.51    0.68
 -10  10   4    4.00    0.54
 -10  10   4    4.28    0.45
  10  10  -4    4.18    0.95
  -8 -10   4  193.62    6.40
  -8 -10   4  205.90    6.99
   8 -10  -4  215.95    6.62
  -8 -10   4  206.15    6.72
  -8 -10   4  202.58    7.06
  -8  10   4  217.53    6.30
   8  10  -4  206.29    6.73
   8  10  -4  207.41    7.12
  -8  10   4  209.27    6.41
   6 -10  -4   87.35    3.00
   6 -10  -4   85.82    2.96
  -6 -10   4   84.16    2.96
  -6 -10   4   87.16    2.85
  -6 -10   4   85.78    2.96
  -6 -10   4   85.61    3.33
  -6  10   4   84.35    2.85
   6  10  -4   83.09    3.38
   6  10  -4   84.48    3.07
  -6  10   4   88.43    2.69
  -6  10   4   85.30    2.77
  -6  10   4   92.36    2.88
  -6  10   4   78.63    2.77
   4 -10  -4   47.52    1.81
  -4 -10   4   48.99    1.80
   4 -10  -4   47.57    1.78
  -4 -10   4   46.19    2.10
  -4 -10   4   46.69    1.71
  -4 -10   4   47.49    1.69
   4  10  -4   47.47    2.16
  -4  10   4   48.87    1.56
   4  10  -4   47.85    1.88
  -4  10   4   45.25    1.64
  -4  10   4   47.25    1.70
  -4  10   4   45.53    1.59
  -4  10   4   46.12    1.70
  -2 -10   4   54.89    1.75
   2 -10  -4   53.97    1.94
  -2 -10   4   50.82    1.90
  -2 -10   4   51.54    2.23
   2 -10  -4   52.73    1.90
  -2  10   4   50.25    1.73
  -2  10   4   51.84    1.93
   2  10  -4   53.12    1.99
  -2  10   4   52.40    1.92
   2  10  -4   50.07    2.22
  -2  10   4   52.77    1.86
  -2  10   4   51.23    1.70
   2  10  -4   48.30    2.31
   0 -10   4  106.44    3.19
   0 -10  -4  104.45    3.40
   0 -10   4  102.11    3.40
   0 -10  -4  101.20    3.43
   0 -10   4  102.67    3.74
   0  10  -4  101.93    3.49
   0  10   4  104.08    3.55
   0  10   4  102.06    3.19
   0  10   4  102.38    3.45
   0  10  -4   99.18    3.75
   0  10   4  106.24    3.24
   0  10  -4  103.11    3.81
  -2 -10  -4  311.01    9.53
   2 -10   4  309.04    9.55
  -2 -10  -4  313.93    9.59
   2 -10   4  313.04    9.33
  -2  10  -4  303.89    9.88
   2  10   4  320.74    9.84
   2  10   4  306.12    9.38
  -2  10  -4  305.38    9.88
  -2  10  -4  317.56    9.64
  -4 -10  -4  129.76    4.18
   4 -10   4  129.79    4.03
   4 -10   4  125.64    4.18
  -4 -10  -4  133.26    4.26
  -4 -10  -4  131.11    4.14
  -4 -10  -4  128.60    4.22
  -4  10  -4  125.34    4.51
   4  10   4  124.04    4.08
   4  10   4  130.80    4.59
  -4  10  -4  130.00    4.26
  -6 -10  -4    1.25    0.30
  -6 -10  -4    1.59    0.31
  -6 -10  -4    1.80    0.62
   6 -10   4    1.62    0.32
  -6 -10  -4    1.60    0.31
  -6  10  -4    2.05    0.48
  -6  10  -4    1.85    0.35
   6  10   4    1.21    0.77
  -8 -10  -4  110.80    3.76
  -8 -10  -4  112.80    3.80
  -8 -10  -4  114.94    3.79
  -8 -10  -4  116.04    4.16
   8 -10   4  111.12    3.77
  -8  10  -4  115.59    3.86
  -8  10  -4  109.74    4.15
  10 -10   4  164.74    5.36
 -10 -10  -4  159.42    5.39
 -10 -10  -4  166.78    5.38
 -10 -10  -4  167.79    5.37
 -10  10  -4  162.59    5.81
 -10  10  -4  168.66    5.45
 -12 -10  -4   43.31    1.84
 -12 -10  -4   44.13    1.97
 -12  10  -4   44.78    2.33
 -12  10  -4   46.33    1.96
 -14 -10  -4    0.81    0.76
 -14 -10  -4   -0.65    0.56
  14  10   4    0.31    0.47
 -14  10  -4    0.84    0.84
 -14  10  -4    0.45    0.47
 -16 -10  -4    7.03    0.94
 -16 -10  -4    7.38    0.84
  16  10   4    8.64    1.07
 -16  10  -4    7.75    1.02
 -16  10  -4    7.74    1.31
 -18 -10  -4  111.87    4.36
 -18 -10  -4  114.27    4.10
 -18  10  -4  104.91    4.84
 -18  10  -4  117.56    4.37
  18  10   4  105.95    4.23
  18  10   4  119.04    5.34
 -19 -11   4   71.67    3.44
  19  11  -4   68.59    3.22
 -19  11   4   74.09    3.30
 -17 -11   4   61.02    2.91
 -17 -11   4   64.58    3.92
  17  11  -4   58.45    2.75
 -17  11   4   61.40    2.82
 -15 -11   4    3.96    1.67
 -15 -11   4    4.17    1.41
 -15 -11   4    5.39    0.88
 -15  11   4    5.39    0.82
  15  11  -4    4.65    1.51
  15  11  -4    4.02    0.76
 -13 -11   4   13.84    1.80
 -13 -11   4   11.65    1.81
 -13 -11   4   10.20    1.11
 -13  11   4   10.44    1.03
  13  11  -4   10.66    1.08
  13  11  -4   12.12    1.68
 -11 -11   4   98.60    3.63
 -11 -11   4  100.64    4.20
 -11 -11   4  100.66    3.26
 -11 -11   4   98.49    3.99
  11  11  -4   94.52    3.61
 -11  11   4   95.58    3.35
  11  11  -4   96.28    4.14
  -9 -11   4  179.57    5.68
  -9 -11   4  181.15    6.31
   9 -11  -4  186.88    5.91
   9  11  -4  173.65    6.43
  -9  11   4  178.42    5.69
   9  11  -4  185.20    6.05
  -7 -11   4   12.22    1.25
  -7 -11   4   11.73    0.70
  -7 -11   4   11.59    0.79
   7 -11  -4   10.94    0.78
  -7  11   4   11.49    0.72
  -7  11   4   11.40    0.57
  -7  11   4   11.34    0.65
   7  11  -4   13.09    1.30
  -7  11   4   10.47    0.73
   7  11  -4   12.45    0.90
  -5 -11   4   31.70    1.32
  -5 -11   4   32.15    1.40
   5 -11  -4   33.02    1.43
   5 -11  -4   33.65    1.40
  -5 -11   4   32.10    1.74
  -5 -11   4   32.60    1.30
  -5  11   4   31.85    1.15
   5  11  -4   32.09    1.49
  -5  11   4   31.53    1.19
  -5  11   4   31.16    1.30
  -5  11   4   31.85    1.25
   5  11  -4   34.80    1.87
  -3 -11   4  151.79    4.53
  -3 -11   4  144.62    4.80
  -3 -11   4  151.96    4.51
   3 -11  -4  144.68    4.82
   3 -11  -4  147.16    4.80
  -3 -11   4  145.32    5.13
   3  11  -4  146.48    5.21
  -3  11   4  143.70    4.71
  -3  11   4  152.31    4.59
   3  11  -4  141.40    4.88
  -3  11   4  157.93    5.08
  -3  11   4  145.06    4.77
   1 -11  -4  207.27    6.62
  -1 -11   4  208.16    6.92
  -1 -11   4  214.47    6.59
   1 -11  -4  208.18    6.57
  -1  11   4  211.89    6.43
   1  11  -4  205.01    6.67
  -1  11   4  218.99    6.49
   1  11  -4  206.72    6.97
  -1  11   4  206.43    6.68
   1  11  -4  203.28    6.98
  -1  11   4  206.56    6.59
  -1 -11  -4   12.57    0.75
   1 -11   4   13.43    1.07
   1 -11   4   11.78    0.74
  -1 -11  -4   12.28    0.77
  -1  11  -4   15.39    0.87
   1  11   4   13.55    1.02
  -1  11  -4   12.52    1.29
   1  11   4   13.21    0.83
  -1  11  -4   15.72    1.10
   1  11   4   12.85    0.72
  -3 -11  -4   44.41    1.78
  -3 -11  -4   44.50    1.75
   3 -11   4   44.06    1.75
  -3  11  -4   55.93    2.84
  -3  11  -4   45.07    2.08
   3  11   4   47.80    2.15
  -3  11  -4   44.68    1.82
  -5 -11  -4   69.60    2.43
   5 -11   4   67.03    2.41
  -5 -11  -4   66.81    2.43
  -5  11  -4   66.48    2.47
  -5  11  -4   64.96    2.73
   7 -11   4  167.66    5.37
  -7 -11  -4  164.46    5.38
  -7 -11  -4  172.24    5.28
  -7 -11  -4  163.57    5.35
  -7  11  -4  160.61    5.74
  -7  11  -4  166.50    5.44
  -9 -11  -4   56.79    2.19
  -9 -11  -4   57.80    2.20
   9 -11   4   56.90    2.18
  -9 -11  -4   55.86    2.17
  -9  11  -4   58.36    2.61
  -9  11  -4   55.20    2.23
 -11 -11  -4   27.48    1.35
 -11 -11  -4   27.27    1.39
  11 -11   4   26.53    1.34
 -11 -11  -4   27.31    1.42
  11  11   4   27.52    1.46
 -11  11  -4   29.25    1.46
 -11  11  -4   25.69    1.76
 -13 -11  -4  122.44    4.27
 -13 -11  -4  127.84    4.40
  13  11   4  121.02    4.37
 -13  11  -4  126.52    4.36
 -13  11  -4  113.22    4.71
 -15 -11  -4   63.03    2.72
 -15 -11  -4   65.75    2.57
 -15 -11  -4   64.93    2.61
 -15  11  -4   64.48    2.73
 -15  11  -4   59.14    3.16
  15  11   4   58.77    2.69
 -17 -11  -4   16.76    1.41
 -17 -11  -4   13.69    1.60
 -17  11  -4   16.96    1.65
  17  11   4   13.58    2.00
  17  11   4   16.20    1.45
 -17  11  -4   16.75    2.12
 -18 -12   4    0.02    0.92
 -18  12   4    1.47    0.99
  18  12  -4    1.37    0.91
 -16 -12   4   32.16    3.52
 -16 -12   4   30.53    2.06
 -16  12   4   36.87    1.96
  16  12  -4   35.28    2.05
 -14 -12   4   66.66    3.56
 -14 -12   4   67.53    2.91
  14  12  -4   66.01    2.90
 -14  12   4   66.17    2.70
  14  12  -4   71.71    3.84
 -12 -12   4   40.45    2.91
 -12 -12   4   39.58    2.43
 -12 -12   4   39.11    1.66
 -12 -12   4   33.79    1.86
 -12  12   4   32.98    1.63
  12  12  -4   33.62    2.53
  12  12  -4   32.61    1.81
  10 -12  -4    7.51    0.80
 -10 -12   4    7.32    0.70
 -10 -12   4    6.51    0.78
 -10 -12   4    7.13    1.11
  10  12  -4    8.04    0.89
  10  12  -4    8.25    1.34
 -10  12   4    7.15    0.72
  -8 -12   4   24.23    1.72
  -8 -12   4   24.18    1.14
  -8 -12   4   23.26    1.24
   8 -12  -4   24.62    1.24
   8  12  -4   24.49    1.81
  -8  12   4   24.00    1.09
  -8  12   4   25.55    1.10
  -8  12   4   22.75    1.13
   8  12  -4   22.15    1.34
  -6 -12   4  134.75    4.56
  -6 -12   4  137.82    4.93
  -6 -12   4  139.31    4.46
   6 -12  -4  138.49    4.56
  -6 -12   4  136.83    4.34
   6  12  -4  136.00    4.68
  -6  12   4  133.61    4.37
   6  12  -4  134.60    5.07
  -6  12   4  131.11    4.40
  -6  12   4  142.27    4.27
  -4 -12   4   80.09    2.81
   4 -12  -4   81.22    2.85
  -4 -12   4   80.49    3.21
  -4 -12   4   78.99    2.85
   4 -12  -4   82.55    2.91
   4  12  -4   82.19    3.34
   4  12  -4   77.53    2.94
  -4  12   4   77.76    2.81
  -4  12   4   78.98    2.74
  -4  12   4   81.44    2.62
  -2 -12   4    3.94    0.52
  -2 -12   4    4.47    0.72
   2 -12  -4    3.05    0.44
   2 -12  -4    4.34    0.55
  -2  12   4    3.56    0.51
  -2  12   4    3.64    0.57
  -2  12   4    3.70    0.42
   2  12  -4    2.52    0.61
   2  12  -4    3.79    0.55
   0 -12  -4  104.04    3.52
   0 -12   4  103.51    3.86
   0 -12  -4   99.95    3.55
   0 -12   4  105.71    3.54
   0  12  -4  104.03    3.93
   0  12   4  104.13    3.59
   0  12  -4  103.43    3.61
   0  12   4  106.90    3.74
   2 -12   4  143.76    4.65
  -2 -12  -4  142.56    4.68
  -2 -12  -4  141.30    4.64
   2  12   4  149.64    5.07
   2  12   4  134.62    4.77
  -2  12  -4  139.19    5.02
  -2  12  -4  141.02    4.73
   2  12   4  141.80    4.58
   4 -12   4   39.90    1.61
  -4 -12  -4   38.16    1.62
  -4 -12  -4   37.74    1.60
   4  12   4   39.44    1.60
  -4  12  -4   37.01    1.91
   4  12   4   38.03    1.81
  -4  12  -4   40.57    1.67
   6 -12   4   16.41    0.95
  -6 -12  -4   16.73    0.98
  -6 -12  -4   16.43    0.97
  -6  12  -4   17.15    1.03
   6  12   4   17.49    1.00
  -6  12  -4   17.61    1.29
  -8 -12  -4   34.34    1.54
   8 -12   4   34.27    1.52
  -8 -12  -4   35.34    1.48
  -8 -12  -4   34.01    1.54
  -8  12  -4   33.34    1.88
  -8  12  -4   34.41    1.58
   8  12   4   33.49    1.58
  10 -12   4   59.18    2.32
 -10 -12  -4   59.87    2.34
 -10 -12  -4   62.77    2.34
 -10 -12  -4   59.45    2.32
 -10  12  -4   56.13    2.77
  10  12   4   55.61    2.37
 -10  12  -4   59.05    2.63
 -12 -12  -4   40.40    1.88
 -12 -12  -4   36.61    1.76
  12  12   4   38.83    2.43
 -12  12  -4   37.46    2.21
 -12  12  -4   40.19    1.88
  12  12   4   37.29    1.87
 -14 -12  -4    4.59    0.86
 -14 -12  -4    4.63    0.73
 -14 -12  -4    4.71    0.79
  14  12   4    5.07    1.22
 -14  12  -4    6.70    1.00
  14  12   4    4.31    0.80
 -14  12  -4    5.73    1.13
 -16 -12  -4   53.19    2.37
 -16 -12  -4   53.33    2.65
 -16 -12  -4   56.09    2.50
 -16  12  -4   54.12    2.62
  16  12   4   51.17    3.41
  16  12   4   53.65    2.54
 -16  12  -4   49.24    3.02
 -17 -13   4    9.39    1.29
  17  13  -4   12.00    1.62
 -17  13   4   12.31    1.56
 -15 -13   4    2.57    0.73
 -15 -13   4    2.33    0.85
  15  13  -4    3.60    0.84
 -13 -13   4   12.22    1.15
 -13 -13   4   12.08    1.66
  13  13  -4   11.52    1.29
 -13  13   4   12.76    1.20
  13  13  -4   16.36    2.19
  11 -13  -4   24.90    1.46
 -11 -13   4   30.31    2.22
 -11 -13   4   28.53    1.31
 -11 -13   4   26.32    1.47
  11  13  -4   24.05    1.57
  11  13  -4   25.17    2.38
 -11  13   4   25.79    1.35
  -9 -13   4   43.13    2.12
  -9 -13   4   43.86    1.81
   9 -13  -4   44.77    1.98
  -9 -13   4   46.84    2.50
   9  13  -4   42.44    2.08
   9  13  -4   45.77    2.65
  -9  13   4   46.08    1.93
  -9  13   4   44.35    1.77
  -7 -13   4   42.88    1.87
  -7 -13   4   44.62    2.34
   7 -13  -4   47.09    1.92
  -7 -13   4   43.74    1.79
   7  13  -4   45.30    2.48
  -7  13   4   45.98    1.92
  -7  13   4   43.92    1.71
   7  13  -4   40.90    1.97
  -5 -13   4   14.56    0.95
   5 -13  -4   14.45    1.01
  -5 -13   4   15.13    0.95
   5 -13  -4   16.54    0.99
  -5 -13   4   15.26    1.40
  -5  13   4   15.10    1.03
  -5  13   4   15.36    0.76
   5  13  -4   14.32    1.44
  -5  13   4   14.88    0.87
   5  13  -4   17.38    1.10
  -3 -13   4  155.40    5.47
  -3 -13   4  155.02    5.06
   3 -13  -4  157.77    5.08
   3 -13  -4  153.38    5.12
  -3  13   4  151.99    5.10
   3  13  -4  147.89    5.53
  -3  13   4  155.02    5.02
   3  13  -4  148.76    5.35
  -3  13   4  155.10    4.84
  -1 -13   4   50.80    2.04
  -1 -13   4   51.66    2.38
   1 -13  -4   51.24    2.10
   1 -13  -4   53.57    2.06
  -1  13   4   51.00    2.08
  -1  13   4   55.10    2.47
   1  13  -4   51.92    2.14
  -1  13   4   54.63    1.93
   1  13  -4   53.19    2.48
  -1 -13  -4    0.65    0.33
  -1 -13  -4    0.48    0.34
   1 -13   4    0.98    0.31
   1  13   4    0.73    0.31
   1  13   4    2.02    0.46
  -1  13  -4    0.58    0.50
  -1  13  -4    0.66    0.35
  -3 -13  -4    2.99    0.46
  -3 -13  -4    3.58    0.51
   3 -13   4    3.66    0.50
   3  13   4    2.80    0.55
   3  13   4    3.33    0.48
  -3  13  -4    3.64    0.54
  -3  13  -4    3.07    0.65
  -5 -13  -4   76.27    2.80
  -5 -13  -4   78.79    2.79
   5 -13   4   75.38    2.77
  -5  13  -4   74.45    3.15
  -5  13  -4   76.44    2.84
   5  13   4   73.15    3.04
   5  13   4   78.24    2.79
   7 -13   4   30.23    1.43
  -7 -13  -4   30.08    1.46
  -7 -13  -4   29.62    1.44
   7  13   4   30.05    1.77
  -7  13  -4   26.97    1.79
   7  13   4   30.98    1.48
  -7  13  -4   30.86    1.51
  -9 -13  -4   11.45    0.96
  -9 -13  -4   10.26    0.89
   9 -13   4   10.44    0.89
  -9  13  -4    9.42    1.34
   9  13   4   10.50    0.95
  -9  13  -4   11.67    0.97
  11 -13   4    0.54    0.44
 -11 -13  -4    0.61    0.47
 -11 -13  -4    0.65    0.59
 -11 -13  -4    0.92    0.46
  11  13   4    0.77    0.81
 -11  13  -4   -0.13    0.68
 -11  13  -4   -0.91    0.49
  11  13   4   -0.28    0.48
 -13 -13  -4   68.55    2.80
 -13 -13  -4   70.10    2.73
 -13 -13  -4   73.11    2.89
 -13  13  -4   67.72    3.30
  13  13   4   68.88    2.89
 -13  13  -4   68.03    2.97
  13  13   4   63.11    3.36
 -15 -13  -4   33.32    1.97
 -15 -13  -4   34.22    1.85
 -15 -13  -4   36.69    2.16
 -15  13  -4   30.82    2.43
  15  13   4   36.68    2.97
 -15  13  -4   35.22    2.01
  15  13   4   32.51    1.96
 -16 -14   4    2.01    0.75
  16  14  -4    0.41    0.86
 -16  14   4    0.12    0.85
 -14 -14   4   44.27    2.24
  14  14  -4   45.55    2.42
  14  14  -4   52.72    3.81
 -14  14   4   45.47    2.15
 -12 -14   4   11.39    1.17
 -12 -14   4   10.17    2.16
  12  14  -4    9.30    1.10
  12  14  -4   12.77    1.80
 -12  14   4   12.71    1.15
  10 -14  -4    8.22    1.01
 -10 -14   4   12.23    1.00
 -10 -14   4   12.25    1.04
 -10 -14   4   15.45    1.99
  10  14  -4   10.68    1.20
  10  14  -4    9.35    1.92
 -10  14   4   11.84    0.95
  -8 -14   4    6.84    0.81
  -8 -14   4    7.90    1.21
  -8 -14   4    7.51    0.82
   8 -14  -4    6.37    0.82
   8  14  -4    6.82    1.00
  -8  14   4    6.24    0.75
   8  14  -4    5.79    1.15
   6 -14  -4   15.52    1.07
  -6 -14   4   17.49    1.18
  -6 -14   4   18.24    1.61
  -6 -14   4   16.17    1.08
   6  14  -4   15.78    1.72
  -6  14   4   14.88    0.95
   6  14  -4   16.73    1.19
   4 -14  -4    9.09    0.86
  -4 -14   4   14.19    1.41
   4 -14  -4   10.28    0.92
  -4 -14   4   11.47    0.87
  -4  14   4    9.80    0.81
   4  14  -4    9.67    1.33
   4  14  -4   11.11    0.96
   2 -14  -4    0.03    0.33
  -2 -14   4    0.49    0.34
  -2 -14   4    0.57    0.61
   2 -14  -4    0.21    0.35
  -2  14   4    0.56    0.34
   2  14  -4    0.24    0.58
  -2  14   4    0.25    0.37
   2  14  -4    0.45    0.35
   0 -14  -4    2.84    0.51
   0 -14   4    2.15    0.42
   0 -14  -4    2.41    0.53
   0  14   4    2.52    0.42
   0  14   4    2.39    0.53
   0  14  -4    2.40    0.52
   0  14  -4    2.06    0.68
  -2 -14  -4   26.61    1.37
   2 -14   4   27.62    1.36
  -2 -14  -4   27.06    1.38
  -2  14  -4   25.83    1.73
  -2  14  -4   26.41    1.41
   2  14   4   31.98    1.35
   2  14   4   27.79    1.51
  -4 -14  -4   51.53    2.10
   4 -14   4   50.33    2.10
  -4 -14  -4   52.45    2.14
  -4  14  -4   50.33    2.50
   4  14   4   50.48    2.33
   4  14   4   53.52    2.09
  -4  14  -4   55.08    2.19
  -6 -14  -4    0.12    0.38
   6 -14   4    0.07    0.35
  -6 -14  -4    1.02    0.46
   6  14   4    0.54    0.88
  -6  14  -4    0.76    0.44
   6  14   4   -0.03    0.40
  -6  14  -4    1.59    1.05
  -8 -14  -4   34.07    1.67
   8 -14   4   35.55    1.86
   8  14   4   36.30    1.72
  -8  14  -4   35.66    1.72
  -8  14  -4   33.23    2.05
   8  14   4   33.98    2.05
 -10 -14  -4    6.43    0.77
 -10 -14  -4    7.84    1.01
  10 -14   4    7.34    0.94
  10  14   4    4.54    0.96
 -10  14  -4    6.93    1.08
  10  14   4    8.26    1.02
 -10  14  -4    9.97    1.08
 -12 -14  -4    6.42    0.86
  12 -14   4    5.75    0.79
 -12 -14  -4   10.29    1.03
 -12 -14  -4   10.18    1.35
  12  14   4    7.72    1.36
 -12  14  -4    8.46    1.22
 -12  14  -4    4.76    1.13
  12  14   4    7.41    0.95
 -14 -14  -4   -0.35    0.89
 -14 -14  -4    0.47    0.65
 -14 -14  -4    0.02    0.69
  14  14   4    0.46    0.69
 -14  14  -4    1.16    0.81
 -14  14  -4    0.19    1.00
  14  14   4    2.17    1.23
 -13 -15   4    0.95    0.71
 -13  15   4   -0.32    0.73
  13  15  -4    1.05    0.76
  13  15  -4    3.83    1.77
 -11 -15   4    5.23    0.79
  11 -15  -4    9.70    1.11
  11  15  -4    5.62    1.54
  11  15  -4    6.55    0.97
 -11  15   4    6.48    1.01
  -9 -15   4    3.01    1.19
  -9 -15   4    0.44    0.54
   9 -15  -4    0.39    0.49
  -9 -15   4    0.47    0.45
   9  15  -4   -0.45    1.07
  -9  15   4   -0.03    0.50
   9  15  -4    0.16    0.56
  -7 -15   4    2.51    1.03
  -7 -15   4    2.49    0.57
   7 -15  -4    3.84    0.63
   7  15  -4    2.61    1.01
  -7  15   4    3.26    0.56
   7  15  -4    2.72    0.65
  -5 -15   4    1.26    0.46
  -5 -15   4    0.63    0.87
   5 -15  -4    0.19    0.43
  -5  15   4    1.81    0.56
   5  15  -4    0.65    1.06
   3 -15  -4    0.57    0.49
   3 -15  -4    0.09    0.41
   3  15  -4    1.14    0.49
   3  15  -4   -0.22    0.68
  -3  15   4   -0.49    0.40
   1 -15  -4    0.39    0.41
  -1 -15   4    0.10    0.37
  -1  15   4    0.52    0.43
  -1  15   4    0.37    0.39
   1  15  -4    0.39    0.70
   1  15  -4    0.21    0.41
  -1 -15  -4    0.05    0.40
   1 -15   4    0.15    0.38
  -1  15  -4    0.14    0.44
  -1  15  -4    0.63    0.71
   1  15   4    0.83    0.40
  -3 -15  -4   11.58    0.99
   3 -15   4   10.57    1.16
  -3 -15  -4    8.42    1.18
   3  15   4   11.74    0.92
  -3  15  -4    8.39    1.29
   3  15   4   10.59    1.08
  -3  15  -4   12.43    1.04
  -5 -15  -4   10.33    0.94
  -5 -15  -4    7.79    1.09
   5 -15   4    9.22    0.90
  -5  15  -4    8.74    1.19
   5  15   4    8.26    1.15
   5  15   4   11.09    0.98
  -5  15  -4    9.42    1.01
   7 -15   4    8.01    0.92
  -7 -15  -4    6.74    0.94
  -7 -15  -4    8.54    0.98
  -7  15  -4    8.79    1.35
   7  15   4   10.89    1.04
  -7  15  -4    9.78    1.07
   7  15   4    9.06    1.29
   9 -15   4    0.69    0.49
  -9 -15  -4    1.20    0.55
  -9 -15  -4   -0.14    0.51
   9  15   4    0.82    0.62
   9  15   4   -0.51    0.73
  -9  15  -4   -0.15    0.93
  -9  15  -4   -0.12    0.75
 -11 -15  -4    4.61    0.83
 -11 -15  -4    8.23    1.09
  11 -15   4    5.39    0.82
 -11  15  -4    6.10    0.94
  11  15   4    7.41    1.31
  11  15   4    6.38    0.91
 -11  15  -4    5.38    1.08
 -13 -15  -4    0.66    0.71
 -13 -15  -4    1.54    0.79
  13  15   4    0.77    0.72
  13  15   4    1.19    1.13
 -13  15  -4    1.97    1.08
 -12 -16   4   -0.95    0.64
  12  16  -4    3.61    1.74
  12  16  -4   -0.16    0.79
 -12  16   4   -0.50    0.71
 -10 -16   4    3.96    0.73
  10 -16  -4    3.90    0.77
 -10  16   4    1.89    0.67
  10  16  -4    2.09    1.39
  10  16  -4    4.07    0.86
  -8 -16   4    0.50    0.53
   8 -16  -4    0.31    0.54
  -8  16   4    1.22    0.54
   8  16  -4    0.48    0.65
   8  16  -4    0.91    1.13
  -6 -16   4    5.33    1.24
  -6 -16   4    3.90    0.66
   6 -16  -4    5.10    0.76
  -6  16   4    4.67    0.70
   6  16  -4    5.29    0.82
   6  16  -4    4.74    1.18
  -4 -16   4    6.72    0.90
   4 -16  -4    6.78    0.83
   4  16  -4    6.91    1.24
  -4  16   4    6.65    0.90
   4  16  -4    6.08    0.85
   2 -16  -4    4.81    0.71
   2 -16  -4    5.37    0.76
  -2 -16   4    5.20    0.67
   2  16  -4    2.64    1.09
   2  16  -4    4.36    1.11
  -2  16   4    4.58    0.74
   0 -16   4   10.72    0.99
   0 -16  -4   10.26    1.02
   0 -16  -4   11.40    1.03
   0  16  -4   10.53    1.52
   0  16  -4   11.85    1.16
   0  16   4    9.04    1.08
   2 -16   4    2.17    0.50
  -2 -16  -4    2.23    0.56
  -2 -16  -4    3.01    0.63
   2  16   4    2.32    0.56
  -2  16  -4    1.26    0.88
   2  16   4    2.69    0.67
  -2  16  -4    2.45    0.65
   4 -16   4   14.15    1.09
  -4 -16  -4   13.19    1.14
  -4 -16  -4   12.23    1.08
  -4  16  -4   11.94    1.54
  -4  16  -4   15.15    1.23
   4  16   4   12.16    1.30
   4  16   4   12.83    1.10
  -6 -16  -4    4.79    0.73
  -6 -16  -4    7.30    0.98
   6 -16   4    6.49    0.91
   6  16   4    5.97    1.00
  -6  16  -4    5.23    1.08
   8 -16   4    5.43    0.81
  -8 -16  -4    7.00    0.88
  -8 -16  -4    4.76    0.79
  -8  16  -4    6.35    0.94
   8  16   4    5.34    1.08
  -8  16  -4    5.27    1.12
   8  16   4    5.33    0.85
  10 -16   4    1.79    0.69
 -10 -16  -4    2.67    0.70
 -10 -16  -4    2.76    0.77
 -10  16  -4    1.50    1.03
  10  16   4    0.63    0.76
  10  16   4    2.06    0.98
 -10  16  -4    2.19    0.82
 -12 -16  -4    4.38    0.92
  12 -16   4    5.58    0.86
 -12 -16  -4    5.96    0.90
  12  16   4    6.15    1.46
  12  16   4    6.41    0.99
 -12  16  -4    4.48    1.22
  11 -17  -4   32.92    2.02
 -11 -17   4   32.33    1.96
  11  17  -4   35.36    3.33
  11  17  -4   33.41    2.18
 -11  17   4   36.74    1.78
   9 -17  -4    1.02    0.72
  -9 -17   4    1.17    0.69
  -9  17   4    1.30    0.70
   9  17  -4    0.62    0.80
   9  17  -4    1.45    1.40
  -7 -17   4    2.14    0.67
   7 -17  -4    1.90    0.67
   7  17  -4    1.02    0.72
   7  17  -4    1.06    1.16
  -7  17   4    1.89    0.67
  -5 -17   4    2.06    0.65
   5 -17  -4    3.54    0.70
   5  17  -4    2.11    0.73
   5  17  -4    3.25    1.12
  -5  17   4    1.26    0.61
   3 -17  -4    7.46    1.01
  -3 -17   4    9.06    1.04
   3  17  -4    6.30    1.33
   3  17  -4    8.57    1.15
  -3  17   4    8.67    1.12
  -1 -17   4    6.07    0.85
   1 -17  -4    7.80    1.05
   1 -17  -4    6.44    0.82
   1  17  -4    7.67    1.32
  -1  17   4    6.79    1.06
   1  17  -4    8.33    1.22
   1 -17   4    9.60    1.04
  -1 -17  -4    9.58    1.11
  -1 -17  -4   11.00    1.18
  -1  17  -4   12.58    1.68
   1  17   4   11.06    1.27
  -1  17  -4   10.09    1.28
  -3 -17  -4    1.91    0.63
   3 -17   4    1.33    0.55
  -3 -17  -4    1.81    0.62
  -3  17  -4    1.71    0.93
  -3  17  -4    2.64    0.72
   3  17   4    0.28    0.61
   3  17   4    0.56    0.71
   5 -17   4   58.00    2.51
  -5 -17  -4   57.91    2.50
  -5 -17  -4   55.81    2.53
   5  17   4   60.85    2.52
  -5  17  -4   55.73    3.02
   5  17   4   55.38    2.84
  -5  17  -4   61.86    2.66
   7 -17   4   19.65    1.49
  -7 -17  -4   26.25    1.57
  -7 -17  -4   19.37    1.56
  -7  17  -4   23.75    1.71
   7  17   4   27.03    1.65
  -7  17  -4   21.25    2.04
   7  17   4   20.66    1.92
  -9 -17  -4    0.25    0.71
  -9 -17  -4    1.14    0.71
   9 -17   4    0.50    0.65
   9  17   4   -0.25    0.73
  -9  17  -4    1.12    0.97
   9  17   4    0.33    0.96
  -8 -18   4   26.37    1.76
   8 -18  -4   27.24    1.83
  -8  18   4   30.21    1.71
   8  18  -4   25.86    3.00
   8  18  -4   24.59    1.94
   6 -18  -4   29.98    1.81
  -6 -18   4   28.09    1.74
   6  18  -4   29.64    2.68
   6  18  -4   28.56    1.91
  -6  18   4   25.75    1.66
  -4 -18   4    9.60    1.23
   4 -18  -4   11.40    1.26
   4  18  -4    8.61    1.56
  -4  18   4   11.21    1.30
   4  18  -4   10.76    1.44
  -2 -18   4   -1.00    0.57
   2 -18  -4   -0.52    0.60
   2  18  -4   -0.83    1.09
  -2  18   4   -0.90    0.68
   2  18  -4    1.97    0.79
   0 -18  -4    4.08    0.81
   0 -18  -4    3.38    0.71
   0 -18   4    4.07    0.77
   0  18  -4    4.13    0.91
   0  18  -4    5.81    1.29
   0  18   4    4.44    0.87
   2 -18   4   55.19    2.47
  -2 -18  -4   53.88    2.47
  -2 -18  -4   54.65    2.53
  -2  18  -4   54.16    3.07
  -2  18  -4   56.17    2.65
   2  18   4   56.38    2.72
  -4 -18  -4   26.61    1.69
  -4 -18  -4   24.92    1.71
   4 -18   4   27.55    1.66
   4  18   4   25.02    1.97
  -4  18  -4   26.38    2.29
  -4  18  -4   28.22    1.93
  -6 -18  -4    0.40    0.69
  -6 -18  -4    0.04    0.73
   6 -18   4   -0.64    0.63
   6  18   4    0.06    0.74
   6  18   4   -1.20    0.85
  -6  18  -4    1.56    1.05
  -6  18  -4   -0.20    0.86
  -8 -18  -4   17.98    1.56
   8 -18   4   20.31    1.54
  -8 -18  -4   18.74    1.66
  -8  18  -4   21.36    2.30
   8  18   4   18.98    1.70
   8  18   4   17.94    2.09
  -3 -19   4   47.98    2.41
   3 -19  -4   49.20    2.43
   3  19  -4   53.84    2.70
  -3  19   4   49.02    2.44
   3  19  -4   51.71    3.34
  -1 -19   4   58.08    2.67
   1 -19  -4   60.59    2.73
   1  19  -4   57.72    3.50
   1  19  -4   66.97    2.97
  -1  19   4   58.80    2.83
  -1 -19  -4    5.12    0.97
   1 -19   4   10.06    1.26
  -1 -19  -4    6.63    0.96
  -1  19  -4    4.97    1.05
  -1  19  -4    6.12    1.38
   1  19   4    5.60    1.07
  -3 -19  -4    7.55    1.05
  -3 -19  -4    5.32    0.99
   3 -19   4    4.33    0.87
  -3  19  -4    6.48    1.43
   3  19   4    6.52    1.18
  -3  19  -4    5.32    1.14
 -22   0   5    1.81    1.35
 -22   0   5    1.01    0.96
 -22   0   5    1.37    1.67
 -20   0   5    0.86    1.02
 -20   0   5    0.84    0.76
 -20   0   5   -0.25    1.17
 -18   0   5    0.66    1.03
 -18   0   5   -0.06    0.51
 -18   0   5   -0.43    0.79
 -16   0   5    0.72    0.74
 -16   0   5    0.63    0.66
  16   0  -5   -0.19    0.27
 -16   0   5    0.24    0.41
 -14   0   5    0.13    0.33
 -14   0   5    1.12    0.61
  14   0  -5    0.18    0.22
 -14   0   5   -0.03    0.44
  12   0  -5    0.18    0.43
  12   0  -5   -0.23    0.26
 -12   0   5    0.11    0.36
 -12   0   5    1.12    0.30
 -12   0   5    0.52    0.23
 -12   0   5    0.41    0.51
 -10   0   5    0.14    0.21
 -10   0   5    0.48    0.36
 -10   0   5    0.41    0.15
  10   0  -5    0.35    0.15
 -10   0   5    0.32    0.27
  10   0  -5    0.56    0.21
   8   0  -5    0.54    0.16
   8   0  -5    0.28    0.23
  -8   0   5    0.18    0.23
  -8   0   5    0.33    0.16
   8   0  -5    0.18    0.11
  -8   0   5    0.03    0.28
  -6   0   5    0.33    0.07
  -6   0   5    0.27    0.13
   6   0  -5    0.27    0.09
   6   0  -5    0.21    0.17
  -6   0   5    0.13    0.25
  -6   0   5    0.24    0.16
  -6   0   5    0.44    0.15
   6   0  -5    0.05    0.12
  -6   0   5    0.25    0.20
   4   0  -5    0.03    0.07
   4   0  -5    0.00    0.17
   4   0  -5    0.10    0.09
  -4   0   5    0.16    0.20
   4   0  -5    0.31    0.15
  -4   0   5    0.20    0.13
  -4   0   5    0.07    0.12
   4   0  -5    0.04    0.05
  -4   0   5    0.27    0.10
  -4   0   5    0.13    0.10
   4   0  -5    0.59    0.31
   2   0  -5    0.05    0.05
  -2   0   5   -0.02    0.12
  -2   0   5    0.32    0.10
  -2   0   5    0.47    0.16
   2   0  -5    0.14    0.09
   2   0  -5    0.33    0.23
   2   0  -5   -0.03    0.15
   2   0  -5    0.04    0.07
  -2   0   5    0.13    0.18
   0   0   5    0.15    0.15
   0   0  -5    0.07    0.19
   0   0   5    0.28    0.15
   0   0  -5    0.46    0.18
   0   0  -5    0.08    0.08
   0   0  -5    0.03    0.14
  -2   0  -5    0.06    0.16
   2   0   5    0.06    0.13
   2   0   5    0.59    0.21
  -2   0  -5    0.20    0.10
  -2   0  -5    0.33    0.19
   2   0   5   -0.15    0.12
   2   0   5    0.19    0.14
  -2   0  -5    0.09    0.19
  -4   0  -5   -0.04    0.10
   4   0   5    0.47    0.19
  -4   0  -5    0.59    0.30
  -4   0  -5    0.16    0.19
   4   0   5    0.07    0.19
  -4   0  -5    0.13    0.06
  -4   0  -5   -0.09    0.22
   4   0   5    0.08    0.14
   6   0   5    0.11    0.20
  -6   0  -5    1.17    0.37
  -6   0  -5    0.12    0.15
  -6   0  -5    0.17    0.11
   6   0   5    0.01    0.31
  -6   0  -5   -0.12    0.22
   8   0   5    0.42    0.23
  -8   0  -5    0.35    0.32
  -8   0  -5   -0.04    0.16
  -8   0  -5    0.06    0.16
 -10   0  -5    0.48    0.39
 -10   0  -5    0.02    0.20
  10   0   5    0.37    0.31
 -12   0  -5    0.11    0.26
 -12   0  -5    0.29    0.45
  12   0   5    0.48    0.35
 -14   0  -5   -0.11    0.28
 -14   0  -5    0.58    0.66
  14   0   5    0.00    0.37
 -16   0  -5    0.27    0.42
 -16   0  -5   -0.24    0.81
 -18   0  -5   -0.52    0.53
 -18   0  -5   -0.44    1.07
 -20   0  -5   -1.11    1.44
 -20   0  -5   -0.79    0.69
  22   0   5    0.23    0.85
 -22   0  -5    1.99    1.91
 -22   0  -5    0.53    0.92
 -21  -1   5    4.09    1.01
 -21  -1   5    0.44    1.25
 -21  -1   5    5.05    1.60
 -21   1   5    4.11    1.34
 -21   1   5    3.04    1.49
 -21   1   5    4.94    1.04
 -19  -1   5    0.80    1.08
 -19  -1   5    1.37    0.94
 -19  -1   5    2.12    0.69
 -19   1   5    2.03    0.71
 -19   1   5    1.89    1.16
 -19   1   5    2.22    0.93
 -17  -1   5   27.93    2.32
 -17  -1   5   32.44    1.68
 -17  -1   5   32.57    2.13
 -17   1   5   30.56    2.40
 -17   1   5   31.22    1.64
  17   1  -5   29.67    1.31
 -17   1   5   29.64    2.02
  15  -1  -5    9.42    0.51
 -15  -1   5    9.40    1.41
 -15  -1   5    8.32    1.16
 -15  -1   5   11.19    0.91
  15   1  -5   10.75    0.68
 -15   1   5    9.65    0.85
 -15   1   5    9.82    1.14
 -15   1   5    9.95    1.43
  13  -1  -5   28.90    1.37
  13  -1  -5   27.42    1.00
 -13  -1   5   29.65    1.11
 -13  -1   5   28.58    1.65
 -13  -1   5   29.50    1.38
 -13  -1   5   27.27    1.83
  13   1  -5   29.71    1.54
 -13   1   5   30.16    1.85
 -13   1   5   28.19    1.32
 -13   1   5   28.66    1.59
  13   1  -5   30.22    1.52
  13   1  -5   26.20    1.13
 -11  -1   5   20.42    1.04
 -11  -1   5   21.44    1.28
  11  -1  -5   22.06    1.03
 -11  -1   5   22.69    0.82
 -11  -1   5   21.84    1.44
  11  -1  -5   20.86    0.76
  11   1  -5   22.12    0.97
  11   1  -5   20.66    0.89
 -11   1   5   21.67    0.87
 -11   1   5   21.72    1.22
 -11   1   5   19.88    1.02
 -11   1   5   21.09    1.43
   9  -1  -5   55.56    1.67
   9  -1  -5   51.93    1.65
  -9  -1   5   50.79    2.11
  -9  -1   5   53.33    2.32
  -9  -1   5   52.05    1.92
  -9  -1   5   55.34    1.67
   9  -1  -5   54.61    1.83
   9   1  -5   54.74    1.82
  -9   1   5   50.17    2.31
   9   1  -5   51.40    1.78
  -9   1   5   51.19    1.86
  -9   1   5   50.63    2.03
  -9   1   5   53.30    1.72
   7  -1  -5    9.09    0.47
  -7  -1   5    7.42    0.74
  -7  -1   5    8.20    0.57
   7  -1  -5    7.46    0.31
  -7  -1   5    7.68    0.63
  -7  -1   5    7.58    0.48
   7  -1  -5    7.91    0.32
  -7   1   5    8.49    0.37
   7   1  -5    7.91    0.42
  -7   1   5    8.70    0.44
  -7   1   5    7.88    0.44
  -7   1   5    6.90    0.72
  -7   1   5    8.40    0.51
   7   1  -5    8.95    0.48
  -7   1   5    8.18    0.58
  -5  -1   5  125.46    4.19
  -5  -1   5  123.68    4.36
  -5  -1   5  132.91    4.02
   5  -1  -5  136.72    3.99
   5  -1  -5  133.20    4.00
  -5  -1   5  126.08    4.06
   5   1  -5  138.63    4.02
  -5   1   5  137.72    3.97
   5   1  -5  125.24    4.00
   5   1  -5  126.07    4.15
   5   1  -5  129.62    4.34
  -5   1   5  127.58    4.00
  -5   1   5  124.09    4.09
  -5   1   5  133.33    3.92
   5   1  -5  127.47    4.13
  -5   1   5  126.47    4.34
  -5   1   5  128.80    4.06
  -5   1   5  130.55    3.99
  -3  -1   5   46.34    1.84
   3  -1  -5   46.65    1.56
   3  -1  -5   47.09    1.49
  -3  -1   5   48.77    1.58
   3  -1  -5   48.69    1.48
   3  -1  -5   48.65    1.79
   3  -1  -5   48.97    1.57
   3  -1  -5   45.48    1.47
  -3  -1   5   44.40    1.59
   3   1  -5   47.75    1.68
  -3   1   5   45.86    1.60
   3   1  -5   48.49    1.68
  -3   1   5   51.22    1.50
   3   1  -5   49.42    1.58
  -3   1   5   46.04    1.78
   3   1  -5   47.05    1.57
  -3   1   5   45.20    1.54
  -3   1   5   49.03    1.54
  -3   1   5   48.25    1.52
   3   1  -5   48.65    1.83
   1  -1  -5    0.19    0.13
  -1  -1   5   -0.04    0.16
   1  -1  -5    0.17    0.08
   1  -1  -5    0.16    0.07
  -1  -1   5    0.27    0.11
   1  -1  -5    0.17    0.13
  -1  -1   5    0.25    0.14
   1  -1  -5    0.17    0.07
   1   1  -5    0.38    0.15
  -1   1   5    0.16    0.16
   1   1  -5    0.11    0.09
  -1   1   5    0.03    0.12
   1   1  -5    0.12    0.10
   1   1  -5    0.05    0.15
  -1   1   5    0.08    0.08
   1   1  -5   -0.03    0.20
   1  -1   5   27.40    0.99
   1  -1   5   27.67    1.11
  -1  -1  -5   25.09    0.93
  -1  -1  -5   25.48    1.04
  -1  -1  -5   27.61    1.11
   1  -1   5   25.66    1.09
   1  -1   5   26.89    1.12
  -1  -1  -5   27.35    1.06
   1   1   5   25.19    1.03
  -1   1  -5   25.79    1.09
   1   1   5   26.67    1.07
  -1   1  -5   27.40    1.15
  -1   1  -5   26.22    0.97
   1   1   5   26.12    1.10
  -1   1  -5   26.71    1.10
   1   1   5   27.61    0.97
  -3  -1  -5    5.80    0.35
  -3  -1  -5    5.81    0.48
   3  -1   5    5.40    0.46
   3  -1   5    5.66    0.44
   3  -1   5    6.21    0.52
  -3  -1  -5    5.95    0.52
  -3  -1  -5    6.32    0.45
  -3   1  -5    5.78    0.24
   3   1   5    6.21    0.51
  -3   1  -5    5.05    0.51
   3   1   5    5.57    0.46
   3   1   5    6.39    0.40
  -3   1  -5    4.91    0.48
  -3   1  -5    6.18    0.55
   3   1   5    5.68    0.40
  -5  -1  -5   93.13    2.99
   5  -1   5   93.88    3.12
  -5  -1  -5   85.24    3.08
  -5  -1  -5   84.10    2.89
   5  -1   5   86.37    3.05
  -5   1  -5   83.06    2.90
  -5   1  -5   91.75    3.10
  -5   1  -5   93.97    2.74
   5   1   5   91.17    3.12
  -5   1  -5   88.63    3.10
  -7  -1  -5   -0.01    0.14
  -7  -1  -5    0.26    0.29
  -7  -1  -5    0.47    0.36
   7  -1   5    0.28    0.22
  -7   1  -5    0.54    0.15
  -7   1  -5    0.46    0.17
   7   1   5    0.22    0.34
  -7   1  -5    0.20    0.25
   7   1   5    0.23    0.22
  -9  -1  -5   41.30    1.90
  -9  -1  -5   40.67    1.60
   9   1   5   40.77    1.74
  -9   1  -5   39.47    1.89
  -9   1  -5   39.08    1.58
 -11  -1  -5   41.25    2.09
 -11  -1  -5   42.07    1.73
  11  -1   5   41.66    1.85
 -11   1  -5   44.00    2.09
  11   1   5   40.63    1.84
 -11   1  -5   43.08    1.73
 -13  -1  -5   50.67    2.50
 -13  -1  -5   50.88    2.09
  13  -1   5   48.90    2.22
  13   1   5   50.54    2.25
 -13   1  -5   52.13    2.50
 -13   1  -5   51.10    2.08
 -15  -1  -5    0.35    0.69
 -15  -1  -5   -0.06    0.36
 -15   1  -5   -0.40    0.60
 -15   1  -5   -0.39    0.35
 -17  -1  -5    6.14    1.21
 -17   1  -5    6.14    1.15
 -17   1  -5    5.46    0.87
 -19  -1  -5    1.70    1.55
 -19  -1  -5   -0.12    0.62
 -19   1  -5    0.94    1.27
 -19   1  -5    0.31    0.63
 -21  -1  -5   10.30    2.03
 -21  -1  -5    7.57    1.13
 -21   1  -5    6.08    1.06
 -21   1  -5    3.85    1.82
 -22  -2   5    0.60    0.95
 -22  -2   5    1.69    1.64
 -22  -2   5   -0.27    1.45
 -22   2   5    4.10    1.67
 -22   2   5   -0.52    1.21
 -22   2   5    1.32    1.00
 -20  -2   5    1.80    0.79
 -20  -2   5    2.32    1.12
 -20  -2   5    2.93    1.33
 -20   2   5    1.50    1.04
 -20   2   5    3.10    1.44
 -20   2   5    2.74    1.38
 -18  -2   5    0.26    0.51
 -18  -2   5    0.50    1.21
 -18  -2   5   -0.47    1.06
 -18   2   5    0.72    0.79
 -18   2   5   -0.66    0.91
  18   2  -5    0.09    0.42
 -18   2   5    0.56    0.59
 -16  -2   5   57.73    2.47
 -16  -2   5   59.88    2.93
 -16  -2   5   58.11    3.08
 -16   2   5   58.40    3.14
 -16   2   5   59.70    2.77
  16   2  -5   57.72    2.15
 -16   2   5   60.62    2.41
 -14  -2   5   67.92    3.17
 -14  -2   5   71.18    3.00
 -14  -2   5   69.13    2.62
 -14   2   5   64.09    2.80
 -14   2   5   68.77    2.52
 -14   2   5   61.43    3.14
  14   2  -5   69.15    2.79
  14   2  -5   66.00    2.36
  12  -2  -5    0.37    0.35
 -12  -2   5    0.09    0.24
 -12  -2   5   -0.08    0.45
 -12  -2   5    0.22    0.39
 -12   2   5    0.69    0.43
  12   2  -5    0.13    0.21
 -12   2   5   -0.23    0.34
  12   2  -5    0.84    0.46
 -10  -2   5    5.67    0.30
 -10  -2   5    5.15    0.68
 -10  -2   5    5.14    0.78
  10  -2  -5    5.85    0.45
 -10  -2   5    5.17    0.50
 -10   2   5    4.94    0.78
  10   2  -5    4.40    0.65
 -10   2   5    5.76    0.43
 -10   2   5    5.13    0.60
  10   2  -5    5.14    0.44
 -10   2   5    5.74    0.45
  10   2  -5    5.85    0.58
  -8  -2   5  208.61    7.06
  -8  -2   5  203.39    6.67
  -8  -2   5  211.01    6.87
   8   2  -5  223.63    6.77
  -8   2   5  204.29    6.53
  -8   2   5  203.13    7.22
   8   2  -5  221.79    6.59
  -8   2   5  207.05    6.69
  -8   2   5  224.25    6.48
  -8   2   5  227.36    6.49
  -6  -2   5   78.86    2.92
  -6  -2   5   85.62    2.83
  -6  -2   5   80.93    2.73
  -6   2   5   86.94    2.58
  -6   2   5   82.90    2.73
   6   2  -5   82.67    2.83
   6   2  -5   77.69    2.66
  -6   2   5   79.03    3.01
   6   2  -5   86.83    2.70
  -6   2   5   82.13    2.61
  -6   2   5   87.28    2.59
  -6   2   5   79.96    2.64
  -6   2   5   84.92    2.66
  -4  -2   5    2.57    0.36
  -4  -2   5    3.42    0.30
  -4  -2   5    3.04    0.28
   4  -2  -5    2.92    0.20
  -4  -2   5    3.45    0.38
  -4  -2   5    3.23    0.47
   4   2  -5    2.75    0.30
  -4   2   5    2.65    0.41
   4   2  -5    3.04    0.26
  -4   2   5    3.02    0.21
  -4   2   5    2.97    0.23
  -4   2   5    3.26    0.20
   4   2  -5    2.24    0.44
   4   2  -5    2.05    0.33
  -4   2   5    3.11    0.26
  -4   2   5    3.15    0.26
  -4   2   5    3.17    0.20
   4   2  -5    3.02    0.38
  -2  -2   5   44.46    1.63
  -2  -2   5   42.99    1.62
   2  -2  -5   43.20    1.43
   2  -2  -5   47.08    1.63
   2  -2  -5   45.48    1.40
  -2  -2   5   42.27    1.72
   2  -2  -5   45.46    1.40
  -2  -2   5   44.16    1.51
  -2   2   5   43.45    1.49
   2   2  -5   44.06    1.63
  -2   2   5   45.09    1.41
   2   2  -5   45.31    1.63
  -2   2   5   42.51    1.62
  -2   2   5   47.46    1.45
  -2   2   5   43.77    1.63
   2   2  -5   46.30    1.52
   2   2  -5   41.89    1.50
  -2   2   5   44.98    1.42
   0  -2   5  321.03    9.55
   0  -2   5  313.86    9.41
   0  -2  -5  305.94    9.48
   0  -2  -5  302.88    9.45
   0  -2  -5  334.58    9.67
   0  -2  -5  319.58    9.54
   0  -2   5  322.74    9.68
   0  -2   5  308.38    9.69
   0  -2  -5  335.10    9.60
   0  -2   5  309.51    9.75
   0  -2  -5  291.15    9.43
   0   2  -5  334.79    9.78
   0   2   5  319.83    9.60
   0   2  -5  318.47    9.69
   0   2   5  309.93    9.67
   0   2   5  307.54    9.58
   0   2  -5  336.18    9.67
   0   2   5  320.63    9.49
   0   2   5  321.44    9.40
   0   2  -5  303.12    9.54
  -2  -2  -5  134.04    4.16
  -2  -2  -5  131.79    4.28
  -2  -2  -5  144.11    4.48
   2  -2   5  135.87    4.18
  -2  -2  -5  133.78    4.28
  -2  -2  -5  147.38    4.36
   2  -2   5  135.72    4.46
   2  -2   5  137.88    4.52
   2  -2   5  138.29    4.34
   2  -2   5  144.68    4.50
  -2  -2  -5  142.74    4.43
   2   2   5  149.35    4.53
  -2   2  -5  143.17    4.47
  -2   2  -5  133.62    4.34
   2   2   5  139.43    4.32
   2   2   5  138.76    4.31
  -2   2  -5  137.05    4.49
  -2   2  -5  144.22    4.55
   4  -2   5    4.00    0.51
   4  -2   5    4.09    0.43
   4  -2   5    3.43    0.41
  -4  -2  -5    3.34    0.42
  -4  -2  -5    3.73    0.31
   4  -2   5    3.87    0.38
  -4  -2  -5    4.28    0.39
  -4  -2  -5    3.70    0.55
  -4   2  -5    3.32    0.45
   4   2   5    3.93    0.43
  -4   2  -5    3.49    0.49
   4   2   5    3.57    0.38
   4   2   5    3.70    0.47
  -4   2  -5    3.50    0.33
  -4   2  -5    4.05    0.22
  -4   2  -5    3.39    0.51
  -6  -2  -5   60.90    2.14
  -6  -2  -5   59.27    2.34
  -6  -2  -5   66.30    2.21
   6  -2   5   60.06    2.30
   6   2   5   60.95    2.29
   6   2   5   63.73    2.39
  -6   2  -5   64.14    1.99
  -6   2  -5   60.08    2.35
  -6   2  -5   63.64    2.17
   8  -2   5   30.91    1.41
  -8  -2  -5   30.87    1.28
  -8  -2  -5   33.40    1.45
  -8  -2  -5   30.43    1.54
  -8   2  -5   30.72    1.14
  -8   2  -5   31.85    1.56
  -8   2  -5   31.45    1.29
   8   2   5   31.37    1.43
  10  -2   5  164.60    5.47
 -10  -2  -5  166.12    5.32
 -10  -2  -5  153.84    5.92
 -10   2  -5  166.90    5.64
 -10   2  -5  164.75    5.30
  10   2   5  165.89    5.49
 -12  -2  -5    2.11    0.41
 -12  -2  -5    2.42    0.68
  12  -2   5    1.60    0.42
  12   2   5    1.42    0.41
 -12   2  -5    1.60    0.36
 -12   2  -5    2.17    0.66
 -14  -2  -5   61.07    2.48
 -14  -2  -5   68.04    3.04
  14  -2   5   60.13    2.61
 -14   2  -5   63.59    2.50
  14   2   5   58.96    2.62
 -14   2  -5   64.29    2.97
 -16  -2  -5   29.68    2.27
 -16  -2  -5   30.27    1.62
 -16   2  -5   28.16    2.11
 -16   2  -5   28.16    1.56
 -18  -2  -5   38.75    2.96
 -18  -2  -5   40.46    2.08
 -18   2  -5   38.30    2.02
 -18   2  -5   37.69    4.27
 -20  -2  -5    0.66    1.69
 -20  -2  -5    0.23    0.71
 -20   2  -5    1.98    1.44
 -20   2  -5    0.98    0.79
 -22  -2  -5   14.58    1.87
 -22  -2  -5    8.83    2.49
  22  -2   5   13.97    1.66
 -22   2  -5   10.37    2.26
  22   2   5   11.86    1.53
 -22   2  -5   11.69    1.45
 -21  -3   5   18.60    2.99
 -21  -3   5   25.54    2.74
 -21  -3   5   27.36    1.97
 -21   3   5   25.25    2.93
 -21   3   5   30.29    1.98
 -21   3   5   26.03    2.41
 -19  -3   5   93.25    3.82
 -19  -3   5   93.98    4.67
 -19  -3   5   94.13    4.42
 -19   3   5   97.06    4.75
 -19   3   5  103.43    3.75
  19   3  -5   95.11    3.38
 -19   3   5   94.09    4.16
 -17  -3   5   11.27    1.61
 -17  -3   5   11.90    1.78
 -17  -3   5   11.32    1.09
 -17   3   5    9.32    1.29
 -17   3   5   12.11    1.07
  17   3  -5   11.35    0.90
 -17   3   5   10.64    1.60
 -15  -3   5   11.32    0.58
 -15  -3   5   11.12    1.34
 -15  -3   5   10.95    0.94
 -15  -3   5   12.73    1.48
 -15   3   5   11.97    0.88
 -15   3   5    7.86    1.29
 -15   3   5   10.10    1.16
  15   3  -5   10.93    0.80
 -13  -3   5  127.05    3.82
 -13  -3   5  123.37    4.62
 -13  -3   5  125.50    4.28
 -13  -3   5  127.69    4.83
  13   3  -5  126.48    4.44
 -13   3   5  126.05    4.13
 -13   3   5  121.43    4.84
 -13   3   5  119.80    4.39
  13   3  -5  118.93    4.06
 -11  -3   5   69.10    2.98
 -11  -3   5   70.33    2.53
 -11  -3   5   69.00    2.79
 -11  -3   5   71.10    2.13
 -11   3   5   66.17    2.57
  11   3  -5   68.43    2.39
  11   3  -5   68.28    2.68
 -11   3   5   68.09    2.36
 -11   3   5   65.55    2.95
  -9  -3   5   25.42    1.46
  -9  -3   5   25.63    1.13
  -9  -3   5   26.14    0.79
  -9  -3   5   23.40    1.30
  -9   3   5   25.03    1.14
   9   3  -5   24.14    1.04
  -9   3   5   24.57    0.97
  -9   3   5   24.61    0.97
   9   3  -5   24.50    1.26
  -9   3   5   23.77    1.43
  -7  -3   5    2.83    0.54
  -7  -3   5    2.29    0.44
  -7   3   5    3.35    0.25
  -7   3   5    2.87    0.53
   7   3  -5    3.06    0.42
  -7   3   5    2.99    0.29
   7   3  -5    3.28    0.50
  -7   3   5    3.09    0.36
  -7   3   5    3.01    0.26
   7   3  -5    2.64    0.33
  -5  -3   5  240.14    7.89
  -5  -3   5  237.63    7.70
  -5  -3   5  260.75    7.67
  -5  -3   5  230.07    7.53
   5  -3  -5  244.15    7.41
  -5   3   5  257.12    7.41
  -5   3   5  245.06    7.78
  -5   3   5  245.09    7.39
  -5   3   5  258.82    7.33
  -5   3   5  253.20    7.44
   5   3  -5  232.92    7.49
   5   3  -5  251.18    7.52
  -5   3   5  237.94    7.34
   5   3  -5  253.85    7.68
  -5   3   5  237.74    7.41
  -3  -3   5  209.17    6.54
  -3  -3   5  212.99    6.84
   3  -3  -5  200.92    6.45
  -3  -3   5  227.82    6.71
   3  -3  -5  207.42    6.46
  -3   3   5  221.26    6.39
   3   3  -5  223.99    6.57
  -3   3   5  211.07    6.45
  -3   3   5  203.10    6.39
  -3   3   5  219.56    6.46
   3   3  -5  221.90    6.72
   3   3  -5  214.49    6.70
   3   3  -5  209.77    6.56
  -3   3   5  219.54    6.51
  -3   3   5  214.31    6.70
   3   3  -5  211.13    6.82
   1  -3  -5  209.20    6.67
  -1  -3   5  227.43    6.79
   1  -3  -5  216.01    6.72
  -1  -3   5  218.46    7.03
  -1  -3   5  211.32    6.88
  -1  -3   5  234.24    6.95
  -1   3   5  229.88    6.67
  -1   3   5  219.63    6.77
   1   3  -5  231.41    7.06
  -1   3   5  231.55    6.69
   1   3  -5  228.65    6.94
   1   3  -5  228.38    6.81
  -1   3   5  233.75    6.74
   1   3  -5  214.19    6.79
  -1   3   5  210.04    6.88
  -1   3   5  220.55    6.83
   1   3  -5  221.25    6.95
   1  -3   5   79.32    2.42
   1  -3   5   77.35    2.65
  -1  -3  -5   81.76    2.55
   1  -3   5   77.15    2.75
  -1  -3  -5   77.52    2.40
  -1  -3  -5   74.97    2.43
  -1  -3  -5   76.27    2.49
  -1  -3  -5   82.81    2.51
   1  -3   5   79.38    2.69
  -1  -3  -5   82.54    2.67
   1   3   5   81.70    2.50
  -1   3  -5   75.35    2.56
  -1   3  -5   79.81    2.80
   1   3   5   78.20    2.62
  -1   3  -5   74.18    2.69
   1   3   5   78.94    2.49
  -1   3  -5   79.72    2.65
   1   3   5   77.35    2.65
  -3  -3  -5  334.99    9.44
  -3  -3  -5  305.62    9.35
   3  -3   5  316.90    9.51
  -3  -3  -5  321.87    9.65
   3  -3   5  308.36    9.36
  -3  -3  -5  311.11    9.60
  -3  -3  -5  291.43    9.44
   3  -3   5  333.75    9.70
   3  -3   5  295.80    9.69
   3  -3   5  308.23    9.62
  -3  -3  -5  301.42    9.46
   3   3   5  318.68    9.49
  -3   3  -5  297.01    9.51
   3   3   5  301.54    9.63
  -3   3  -5  321.48    9.36
  -3   3  -5  340.04    9.67
  -3   3  -5  314.55    9.71
   3   3   5  318.91    9.67
  -3   3  -5  320.84    9.77
   5  -3   5  125.82    4.27
   5  -3   5  125.07    3.99
  -5  -3  -5  137.68    4.11
  -5  -3  -5  124.38    4.11
  -5  -3  -5  126.50    4.31
   5   3   5  128.43    4.29
   5   3   5  138.29    4.40
  -5   3  -5  136.13    4.00
  -5   3  -5  132.94    4.39
  -7  -3  -5   44.64    1.64
   7  -3   5   42.53    1.73
  -7  -3  -5   42.70    1.83
  -7  -3  -5   39.83    1.58
   7   3   5   40.78    1.72
   7   3   5   45.46    1.90
  -7   3  -5   44.55    1.47
  -7   3  -5   41.32    1.60
  -7   3  -5   42.47    1.89
  -9  -3  -5    6.53    0.80
  -9  -3  -5    5.76    0.80
  -9  -3  -5    6.16    0.53
   9  -3   5    6.33    0.64
  -9   3  -5    5.88    0.76
  -9   3  -5    5.92    0.52
   9   3   5    6.51    0.64
 -11  -3  -5   67.41    2.85
  11  -3   5   62.30    2.56
 -11  -3  -5   66.44    2.47
  11   3   5   63.84    2.59
 -11   3  -5   67.80    2.79
 -11   3  -5   69.45    2.48
  13  -3   5  124.03    4.55
 -13  -3  -5  129.89    4.89
 -13  -3  -5  128.01    4.41
  13   3   5  127.14    4.59
 -13   3  -5  129.63    4.83
 -13   3  -5  131.82    4.41
 -15  -3  -5   41.32    2.52
 -15  -3  -5   40.64    1.91
 -15   3  -5   39.54    1.94
 -15   3  -5   39.65    2.36
 -17  -3  -5    2.02    1.20
 -17  -3  -5    1.73    0.56
 -17   3  -5    0.93    0.90
 -17   3  -5    2.05    0.66
 -19  -3  -5   36.38    2.06
 -19  -3  -5   34.88    2.91
 -19  -3  -5   36.87    5.20
 -19   3  -5   37.06    2.06
 -19   3  -5   37.14    2.79
 -21  -3  -5   78.52    5.02
 -21  -3  -5   77.59    3.48
 -21  -3  -5   77.21    3.14
 -21   3  -5   81.75    3.51
 -21   3  -5   74.58    4.37
 -22  -4   5   76.14    4.40
 -22  -4   5   74.15    3.47
 -22  -4   5   71.94    4.60
 -22   4   5   70.48    3.80
 -22   4   5   73.57    4.66
 -20  -4   5    2.02    1.44
 -20  -4   5    3.31    1.32
 -20  -4   5    5.79    0.99
  20   4  -5    4.16    0.82
 -20   4   5    6.64    1.03
 -20   4   5    3.65    1.11
 -20   4   5    4.28    1.60
 -18  -4   5   50.48    3.20
 -18  -4   5   47.72    3.21
 -18  -4   5   50.14    3.08
 -18   4   5   48.03    2.64
  18   4  -5   52.07    2.13
 -18   4   5   50.26    3.22
 -18   4   5   55.62    2.34
 -16  -4   5  183.80    6.84
 -16  -4   5  174.89    6.62
 -16  -4   5  184.32    6.18
 -16   4   5  174.43    6.33
 -16   4   5  191.48    6.02
  16   4  -5  180.75    5.89
 -16   4   5  179.75    6.95
 -14  -4   5   82.35    3.61
 -14  -4   5   82.64    2.57
 -14  -4   5   81.77    3.46
 -14  -4   5   80.82    3.07
  14   4  -5   80.83    2.89
 -14   4   5   76.97    3.16
 -14   4   5   81.04    3.68
  14   4  -5   78.99    3.34
 -14   4   5   83.95    2.90
 -12  -4   5    1.47    0.50
 -12  -4   5   -0.05    0.51
 -12  -4   5    0.82    0.33
 -12  -4   5    0.81    0.15
  12   4  -5    1.00    0.30
 -12   4   5    0.71    0.28
  12   4  -5    1.10    0.57
 -12   4   5    0.67    0.37
 -10  -4   5  109.79    3.20
 -10  -4   5  109.71    4.04
 -10  -4   5  104.21    3.88
 -10  -4   5  108.53    3.63
  10   4  -5  108.77    3.82
 -10   4   5  100.68    3.57
 -10   4   5  102.49    3.38
  10   4  -5  101.82    3.50
  -8  -4   5   74.63    3.03
  -8  -4   5   77.32    2.95
  -8  -4   5   79.32    2.72
  -8   4   5   75.85    2.60
   8   4  -5   78.44    2.88
  -8   4   5   81.48    2.48
   8   4  -5   76.13    2.64
  -6  -4   5  106.65    3.97
  -6  -4   5  109.77    3.68
   6  -4  -5  110.28    3.54
  -6  -4   5  116.99    3.82
   6   4  -5  115.14    3.85
  -6   4   5  108.40    3.92
  -6   4   5  113.47    3.43
  -6   4   5  120.89    3.41
  -6   4   5  115.70    3.55
   6   4  -5  110.25    3.64
  -6   4   5  109.02    3.51
  -6   4   5  117.96    3.47
  -4  -4   5  160.43    4.95
   4  -4  -5  150.41    4.71
  -4  -4   5  153.07    4.83
  -4  -4   5  147.79    5.15
   4  -4  -5  151.44    4.70
   4   4  -5  147.15    4.56
   4   4  -5  148.76    4.81
  -4   4   5  149.65    4.61
   4   4  -5  155.95    4.98
  -4   4   5  163.28    4.71
  -4   4   5  151.68    4.60
  -4   4   5  153.80    4.98
  -4   4   5  159.23    4.71
   4   4  -5  150.48    4.80
  -2  -4   5   94.59    3.22
   2  -4  -5   96.32    3.07
   2  -4  -5   94.15    3.04
  -2  -4   5   94.88    3.40
  -2  -4   5  102.76    3.31
  -2   4   5   97.22    3.20
  -2   4   5  102.53    3.09
   2   4  -5   90.79    3.15
   2   4  -5   95.57    3.16
  -2   4   5   98.80    3.05
  -2   4   5  100.66    3.04
  -2   4   5   98.52    3.23
   2   4  -5  103.85    3.34
  -2   4   5  100.35    2.98
   2   4  -5  103.65    2.98
   2   4  -5   94.43    3.30
   0  -4   5  489.56   14.71
   0  -4   5  473.72   14.67
   0  -4   5  461.92   14.92
   0  -4  -5  463.33   14.62
   0  -4  -5  491.70   14.73
   0  -4   5  484.69   14.77
   0  -4  -5  528.38   14.54
   0  -4   5  521.09   14.86
   0   4   5  481.61   14.77
   0   4  -5  468.07   14.69
   0   4  -5  502.01   14.99
   0   4   5  492.40   14.58
   0   4  -5  488.34   14.88
   0   4   5  521.41   14.57
   0   4   5  466.15   14.69
   0   4   5  509.87   14.64
   0   4   5  480.74   14.61
  -2  -4  -5  178.12    5.38
   2  -4   5  164.81    5.50
   2  -4   5  174.45    5.44
  -2  -4  -5  163.52    5.13
   2  -4   5  164.90    5.26
  -2  -4  -5  162.72    5.22
   2  -4   5  171.94    5.37
  -2  -4  -5  176.92    5.30
   2  -4   5  162.32    5.14
  -2  -4  -5  165.21    5.15
  -2   4  -5  165.05    5.46
   2   4   5  172.47    5.23
  -2   4  -5  179.95    5.38
   2   4   5  176.15    5.41
   2   4   5  172.64    5.38
  -2   4  -5  168.33    5.30
  -4  -4  -5   15.79    0.68
   4  -4   5   16.08    0.93
   4  -4   5   14.77    0.60
  -4  -4  -5   15.73    0.84
  -4  -4  -5   16.36    0.91
  -4  -4  -5   14.73    0.69
  -4  -4  -5   15.62    0.68
   4  -4   5   15.17    0.80
  -4  -4  -5   15.55    0.60
  -4   4  -5   14.78    0.88
  -4   4  -5   15.98    0.62
   4   4   5   14.69    0.80
  -4   4  -5   15.07    0.87
   4   4   5   14.44    0.88
  -6  -4  -5  172.54    5.52
   6  -4   5  166.50    5.15
  -6  -4  -5  182.13    5.21
   6  -4   5  161.30    5.42
  -6  -4  -5  164.21    5.27
  -6  -4  -5  159.11    5.24
  -6   4  -5  165.09    5.57
  -6   4  -5  170.45    5.16
   6   4   5  165.69    5.45
   6   4   5  182.43    5.63
  -6   4  -5  162.27    5.31
  -8  -4  -5  124.53    4.08
  -8  -4  -5  122.12    4.35
  -8  -4  -5  131.88    4.06
   8  -4   5  124.34    4.22
   8   4   5  124.40    4.44
  -8   4  -5  126.08    4.38
  -8   4  -5  121.01    4.10
   8   4   5  126.17    4.24
  10  -4   5   62.42    2.43
 -10  -4  -5   64.81    2.34
 -10  -4  -5   61.88    2.66
 -10  -4  -5   64.71    2.42
  10   4   5   60.81    2.45
 -10   4  -5   62.46    2.63
 -10   4  -5   62.00    2.31
 -12  -4  -5   10.03    0.83
  12  -4   5   11.81    0.97
 -12  -4  -5   12.65    1.38
 -12   4  -5   12.11    1.16
 -12   4  -5   11.86    0.85
  12   4   5   12.18    0.98
 -14  -4  -5    4.47    0.98
 -14  -4  -5    4.83    0.73
  14  -4   5    3.21    0.63
  14   4   5    4.35    0.71
 -14   4  -5    3.66    0.58
 -14   4  -5    4.18    0.94
 -16  -4  -5  137.57    5.29
 -16  -4  -5  122.10    4.55
 -16   4  -5  127.19    4.53
 -16   4  -5  122.41    5.06
 -18  -4  -5   84.45    3.30
 -18  -4  -5  100.24    4.17
 -18  -4  -5   84.54    3.54
 -18  -4  -5   90.72    4.54
 -18   4  -5   96.05    4.31
 -18   4  -5   84.94    3.51
 -20  -4  -5    2.30    0.70
 -20  -4  -5    1.80    1.97
 -20  -4  -5    1.95    0.83
 -20   4  -5    1.44    0.82
 -20   4  -5    0.90    1.35
 -21  -5   5   94.57    4.75
 -21  -5   5   86.10    4.83
 -21  -5   5   84.54    3.77
  21   5  -5   90.29    3.37
 -21   5   5   82.65    4.02
 -21   5   5   78.22    4.84
 -19  -5   5  125.79    4.77
 -19  -5   5  129.73    5.58
 -19  -5   5  129.31    5.49
 -19   5   5  120.97    4.95
  19   5  -5  125.14    4.40
 -19   5   5  124.59    5.74
 -17  -5   5    4.56    1.19
 -17  -5   5    4.93    0.83
 -17  -5   5    5.61    1.27
 -17   5   5    4.47    1.32
  17   5  -5    5.73    0.87
 -17   5   5    4.28    1.23
 -17   5   5    7.23    1.00
 -15  -5   5    6.35    1.13
 -15  -5   5    7.73    1.22
 -15  -5   5    7.88    0.49
 -15  -5   5    7.09    0.97
  15   5  -5    7.91    0.81
 -15   5   5    5.84    1.22
 -15   5   5    7.41    0.83
 -15   5   5    7.78    1.02
 -13  -5   5  101.58    4.00
 -13  -5   5  100.06    3.09
 -13  -5   5  100.09    4.08
 -13  -5   5  100.23    3.61
 -13   5   5   96.99    3.61
  13   5  -5   97.05    3.45
  13   5  -5   96.62    3.87
 -13   5   5  102.49    3.37
 -11  -5   5  266.86    8.94
 -11  -5   5  271.36    8.52
 -11  -5   5  272.74    8.04
 -11  -5   5  277.72    8.88
 -11   5   5  263.24    8.23
  11   5  -5  275.00    8.77
  11   5  -5  258.19    8.39
 -11   5   5  265.80    8.45
  -9  -5   5   37.22    1.52
  -9  -5   5   34.32    1.81
  -9  -5   5   35.22    1.78
  -9  -5   5   35.91    1.14
   9   5  -5   34.08    1.44
   9   5  -5   37.04    1.74
  -9   5   5   34.20    1.38
  -9   5   5   35.72    1.25
  -7  -5   5   44.99    2.06
  -7  -5   5   45.76    2.00
  -7  -5   5   47.90    1.46
  -7  -5   5   46.02    1.78
  -7   5   5   43.82    1.57
  -7   5   5   50.12    1.47
  -7   5   5   47.16    1.49
   7   5  -5   48.97    1.99
   7   5  -5   45.47    1.74
  -5  -5   5  118.35    3.84
  -5  -5   5  123.99    4.06
  -5  -5   5  118.75    4.14
   5  -5  -5  118.62    3.71
   5  -5  -5  116.32    3.74
   5   5  -5  117.59    4.02
   5   5  -5  110.73    3.79
   3  -5  -5  371.65   11.58
  -3  -5   5  414.82   11.86
  -3  -5   5  381.89   11.72
   3  -5  -5  370.61   11.56
  -3  -5   5  325.34   12.20
  -3   5   5  399.14   11.56
  -3   5   5  382.67   11.72
  -3   5   5  429.87   11.69
   3   5  -5  376.14   11.68
   3   5  -5  399.82   11.90
  -3   5   5  378.88   11.76
   3   5  -5  420.95   11.46
  -3   5   5  349.66   11.46
   3   5  -5  395.23   11.88
  -1  -5   5   33.65    1.34
  -1  -5   5   35.41    1.22
   1  -5  -5   35.47    1.20
  -1  -5   5   34.63    1.59
  -1  -5   5   35.51    1.47
   1  -5  -5   35.03    1.25
   1   5  -5   35.95    1.17
  -1   5   5   34.91    1.27
   1   5  -5   34.99    1.48
  -1   5   5   35.60    1.36
   1   5  -5   30.11    1.38
   1   5  -5   34.89    1.49
  -1   5   5   33.86    1.25
  -1   5   5   36.27    1.16
  -1   5   5   36.97    1.21
   1  -5   5   24.55    0.89
  -1  -5  -5   24.74    0.88
  -1  -5  -5   23.74    0.95
   1  -5   5   23.76    1.17
  -1  -5  -5   26.22    0.92
  -1  -5  -5   25.45    1.06
   1  -5   5   23.35    1.04
  -1   5  -5   24.81    1.17
   1   5   5   24.10    1.05
  -1   5  -5   25.93    1.05
   1   5   5   23.26    1.03
   1   5   5   25.82    0.93
  -1   5  -5   25.53    0.92
  -1   5  -5   21.98    1.02
  -3  -5  -5   90.35    3.04
  -3  -5  -5   91.20    2.90
  -3  -5  -5   95.75    2.99
   3  -5   5   89.16    3.00
  -3  -5  -5   90.40    2.82
  -3  -5  -5   88.51    2.80
   3  -5   5   85.02    3.16
   3  -5   5   87.54    2.81
   3   5   5   91.01    3.11
  -3   5  -5   92.55    2.83
  -3   5  -5   93.77    3.03
  -3   5  -5   83.19    3.12
   3   5   5   89.39    3.02
  -3   5  -5   83.15    2.96
  -5  -5  -5  179.31    6.09
   5  -5   5  192.89    5.95
  -5  -5  -5  188.31    5.93
  -5  -5  -5  202.38    6.24
   5  -5   5  197.51    6.18
  -5   5  -5  196.81    6.11
  -5   5  -5  194.12    5.95
   5   5   5  203.85    6.36
  -5   5  -5  201.53    6.35
   5   5   5  192.30    6.24
  -7  -5  -5  248.24    7.96
  -7  -5  -5  244.22    7.67
   7  -5   5  249.42    7.84
  -7  -5  -5  262.44    7.56
  -7  -5  -5  247.06    7.70
  -7   5  -5  253.59    7.76
  -7   5  -5  243.69    8.01
   7   5   5  243.95    7.85
   7   5   5  247.53    8.06
  -9  -5  -5   27.78    1.24
   9  -5   5   27.57    1.33
  -9  -5  -5   25.31    1.13
  -9  -5  -5   26.62    1.50
  -9  -5  -5   27.17    1.21
   9   5   5   25.53    1.31
  -9   5  -5   27.28    1.47
  -9   5  -5   26.00    1.20
 -11  -5  -5  151.87    4.92
  11  -5   5  145.47    5.11
 -11  -5  -5  155.54    5.43
 -11  -5  -5  152.92    5.03
  11   5   5  151.73    5.17
 -11   5  -5  150.80    5.37
 -11   5  -5  153.48    5.02
  13  -5   5  104.53    3.93
 -13  -5  -5  107.70    3.85
 -13  -5  -5  113.57    3.93
 -13  -5  -5  108.65    4.33
 -13  -5  -5  107.28    3.71
 -13   5  -5  114.24    3.87
 -13   5  -5  109.25    4.27
  13   5   5  107.30    3.98
 -15  -5  -5   56.30    2.38
 -15  -5  -5   54.26    2.18
 -15  -5  -5   57.09    2.62
 -15  -5  -5   54.79    3.09
 -15   5  -5   55.34    2.34
 -15   5  -5   53.11    2.82
 -17  -5  -5    8.06    1.31
 -17  -5  -5   10.41    1.70
 -17  -5  -5    7.25    1.08
 -17  -5  -5    7.89    0.87
 -17   5  -5    8.28    1.14
 -17   5  -5    5.17    1.19
 -19  -5  -5   50.63    4.39
 -19  -5  -5   40.70    2.31
 -19  -5  -5   46.08    2.06
 -19   5  -5   42.33    2.26
 -19   5  -5   40.97    3.03
 -21  -5  -5   38.65    2.03
 -21  -5  -5   44.53    2.50
 -21   5  -5   35.03    2.34
  21   5   5   38.36    2.15
 -21   5  -5   35.81    3.28
 -20  -6   5    0.85    1.60
 -20  -6   5    0.93    0.86
 -20  -6   5   -0.35    1.55
 -20   6   5    0.75    1.46
  20   6  -5    0.85    0.76
 -20   6   5    0.76    1.02
 -18  -6   5   21.38    2.44
 -18  -6   5   21.43    1.61
 -18  -6   5   19.70    2.40
 -18   6   5   21.87    1.78
 -18   6   5   24.41    2.52
  18   6  -5   20.45    1.43
 -16  -6   5  106.97    4.64
 -16  -6   5  101.05    3.98
 -16  -6   5  106.20    4.69
 -16   6   5  115.88    3.81
  16   6  -5  108.08    3.83
 -16   6   5  102.40    4.07
 -14  -6   5  103.31    3.16
 -14  -6   5  102.30    4.22
 -14  -6   5   97.37    4.21
 -14  -6   5   97.80    3.71
  14   6  -5  102.94    4.14
 -14   6   5  101.77    3.61
  14   6  -5  100.26    3.60
 -14   6   5  102.67    3.73
 -12  -6   5   15.36    0.62
 -12  -6   5   15.77    1.42
 -12  -6   5   15.60    1.43
 -12  -6   5   15.09    1.00
 -12   6   5   14.90    0.80
  12   6  -5   15.29    1.43
 -12   6   5   14.68    0.98
  12   6  -5   15.88    0.96
 -10  -6   5  159.41    5.24
 -10  -6   5  162.37    4.79
 -10  -6   5  155.68    5.63
 -10  -6   5  161.19    5.58
  10   6  -5  153.09    5.16
  10   6  -5  161.20    5.53
 -10   6   5  162.84    4.90
 -10   6   5  149.91    5.06
  -8  -6   5  301.00    8.90
  -8  -6   5  288.89    9.27
  -8  -6   5  297.97    9.57
  -8  -6   5  302.95    9.70
   8   6  -5  292.71    9.24
   8   6  -5  307.96    9.55
  -8   6   5  285.64    9.02
  -8   6   5  307.55    8.92
  -6  -6   5   72.63    3.64
   6  -6  -5   72.44    2.50
  -6  -6   5   77.69    2.95
  -6  -6   5   78.81    2.35
   6  -6  -5   74.36    2.52
   6   6  -5   73.63    2.61
   6   6  -5   77.15    2.86
  -4  -6   5    0.79    0.33
   4  -6  -5    0.61    0.17
   4   6  -5    0.81    0.22
   4   6  -5    1.03    0.33
  -4   6   5    0.86    0.24
   4   6  -5    1.02    0.15
  -2  -6   5  178.22    5.68
   2  -6  -5  175.14    5.58
  -2  -6   5  181.89    5.57
   2  -6  -5  172.44    5.54
  -2  -6   5  182.16    5.97
  -2   6   5  180.03    5.67
  -2   6   5  177.60    5.55
   2   6  -5  178.75    5.88
  -2   6   5  191.84    5.44
   2   6  -5  191.55    5.48
   2   6  -5  180.40    5.88
  -2   6   5  182.66    5.66
  -2   6   5  177.89    5.53
   2   6  -5  182.02    5.69
   0  -6  -5  196.19    6.06
   0  -6   5  200.67    6.19
   0  -6   5  192.71    6.07
   0  -6  -5  189.25    6.10
   0  -6   5  202.30    6.47
   0   6  -5  190.39    6.38
   0   6  -5  203.86    6.04
   0   6  -5  199.67    6.38
   0   6   5  206.98    6.05
   0   6   5  213.30    6.07
   0   6   5  203.37    5.98
   0   6   5  198.18    6.19
   0   6  -5  189.55    6.19
   0   6   5  195.13    6.19
  -2  -6  -5  144.19    4.18
  -2  -6  -5  131.34    4.18
  -2  -6  -5  128.31    4.10
   2  -6   5  130.44    4.11
  -2  -6  -5  135.85    4.28
  -2  -6  -5  131.74    4.01
   2  -6   5  131.95    4.48
   2  -6   5  131.40    4.25
  -2   6  -5  134.96    4.26
   2   6   5  128.18    4.26
   2   6   5  130.74    4.36
   2   6   5  130.12    4.16
  -2   6  -5  133.06    4.25
  -4  -6  -5   30.66    1.15
  -4  -6  -5   32.28    1.18
   4  -6   5   32.47    1.33
   4  -6   5   33.24    1.53
  -4  -6  -5   30.39    1.23
  -4  -6  -5   32.68    1.38
   4  -6   5   32.78    1.17
  -4  -6  -5   34.32    1.60
  -4   6  -5   30.75    1.47
  -4   6  -5   32.65    1.38
   4   6   5   32.68    1.51
  -4   6  -5   33.30    1.30
   4   6   5   31.24    1.33
  -6  -6  -5   59.42    2.24
  -6  -6  -5   58.08    2.00
   6  -6   5   56.61    1.93
  -6  -6  -5   57.16    2.01
   6  -6   5   55.75    2.11
   6   6   5   54.14    2.12
  -6   6  -5   57.22    2.30
   6   6   5   59.18    2.38
  -6   6  -5   53.87    2.04
  -8  -6  -5  402.32   11.48
  -8  -6  -5  378.37   11.97
  -8  -6  -5  374.07   11.64
   8  -6   5  376.74   11.57
  -8  -6  -5  377.75   11.69
  -8  -6  -5  391.62   11.49
   8  -6   5  374.97   11.80
   8   6   5  388.96   12.14
  -8   6  -5  379.17   12.04
   8   6   5  380.61   11.85
  -8   6  -5  381.87   11.74
 -10  -6  -5  127.21    4.19
 -10  -6  -5  128.39    4.15
 -10  -6  -5  131.53    4.16
 -10  -6  -5  124.86    4.61
 -10  -6  -5  129.36    4.29
  10  -6   5  124.28    4.36
 -10   6  -5  129.14    4.64
 -10   6  -5  129.30    4.29
  10   6   5  126.39    4.41
 -12  -6  -5    0.95    0.29
 -12  -6  -5    1.44    0.58
  12  -6   5    1.27    0.45
 -12  -6  -5    2.05    0.44
 -12  -6  -5    2.14    0.89
 -12   6  -5    1.62    0.41
  12   6   5    0.35    0.43
 -12   6  -5    1.24    0.60
 -14  -6  -5   65.10    3.22
 -14  -6  -5   63.97    2.59
 -14  -6  -5   64.26    2.70
 -14  -6  -5   62.44    2.43
 -14   6  -5   63.82    3.02
 -14   6  -5   64.59    2.56
 -16  -6  -5  140.00    5.64
 -16  -6  -5  140.68    5.02
 -16  -6  -5  135.49    4.76
 -16  -6  -5  131.04    4.81
 -16   6  -5  128.34    4.75
 -18  -6  -5   45.46    2.05
 -18  -6  -5   44.97    2.35
 -18   6  -5   44.68    2.27
 -18   6  -5   46.45    2.98
 -20  -6  -5    0.81    0.79
 -20  -6  -5    1.08    0.66
  20   6   5    0.45    0.69
 -20   6  -5    1.22    0.84
 -20   6  -5    2.59    1.48
 -21  -7   5   43.97    3.99
 -21  -7   5   44.15    2.66
 -21  -7   5   45.57    4.08
  21   7  -5   44.91    2.37
 -21   7   5   42.85    3.92
 -21   7   5   40.68    2.78
 -19  -7   5   41.54    2.41
 -19  -7   5   43.88    3.45
 -19  -7   5   42.77    3.41
  19   7  -5   45.81    2.20
 -19   7   5   41.58    2.52
 -19   7   5   48.13    3.44
 -17  -7   5   17.13    2.23
 -17  -7   5   11.03    2.12
 -17  -7   5   16.40    1.42
 -17   7   5   15.86    1.53
  17   7  -5   19.59    1.36
 -15  -7   5    2.28    0.98
 -15  -7   5    3.27    1.06
 -15  -7   5    2.08    0.58
 -15   7   5    2.37    0.66
  15   7  -5    2.75    1.35
  15   7  -5    3.08    0.60
 -15   7   5    2.35    0.53
 -13  -7   5   27.48    1.51
 -13  -7   5   29.67    2.01
 -13  -7   5   30.12    2.04
 -13  -7   5   29.28    1.06
  13   7  -5   30.40    1.48
  13   7  -5   28.81    2.08
 -13   7   5   27.78    1.46
 -13   7   5   28.87    1.27
 -11  -7   5  184.51    6.06
 -11  -7   5  179.07    6.43
 -11  -7   5  189.70    5.59
 -11  -7   5  185.02    6.49
  11   7  -5  188.87    6.45
 -11   7   5  186.37    5.69
  11   7  -5  181.31    6.00
 -11   7   5  174.94    5.86
  -9  -7   5  112.27    4.20
  -9  -7   5  113.37    4.24
  -9  -7   5  115.64    3.49
  -9  -7   5  111.47    3.88
   9   7  -5  111.51    3.85
  -9   7   5  117.76    3.49
  -9   7   5  107.49    3.61
  -7  -7   5    5.39    0.78
   7  -7  -5    5.50    0.46
  -7  -7   5    6.07    0.56
  -7  -7   5    3.72    0.61
  -7  -7   5    5.62    0.34
   7   7  -5    5.50    0.87
   7   7  -5    5.86    0.55
  -5  -7   5  324.24   10.34
   5  -7  -5  316.23    9.89
   5  -7  -5  314.44    9.87
   5   7  -5  318.75   10.00
   5   7  -5  347.81    9.72
   5   7  -5  327.32   10.33
  -3  -7   5  107.02    3.88
   3  -7  -5  109.63    3.51
  -3  -7   5  108.49    3.59
   3  -7  -5  111.22    3.49
  -3  -7   5  108.39    3.50
   3   7  -5  113.02    3.38
   3   7  -5  101.39    4.02
  -3   7   5  111.94    3.30
  -3   7   5  109.43    3.39
   3   7  -5  111.18    3.62
  -3   7   5  106.77    3.56
   1  -7  -5   36.25    1.34
   1  -7  -5   33.04    1.38
  -1  -7   5   36.69    1.31
  -1  -7   5   36.51    1.38
  -1  -7   5   33.55    1.62
  -1   7   5   36.85    1.28
   1   7  -5   32.59    1.63
  -1   7   5   38.48    1.24
  -1   7   5   35.47    1.37
  -1   7   5   34.90    1.35
   1   7  -5   35.99    1.65
   1   7  -5   35.64    1.41
   1   7  -5   36.22    1.25
  -1  -7  -5    0.83    0.19
   1  -7   5    0.34    0.22
   1  -7   5    1.18    0.35
  -1  -7  -5    0.88    0.21
   1   7   5    0.86    0.23
  -1   7  -5    0.71    0.20
   1   7   5    1.12    0.26
   1   7   5    1.17    0.32
  -1   7  -5    0.70    0.34
   3  -7   5   68.53    2.39
   3  -7   5   70.00    2.30
  -3  -7  -5   64.89    2.29
  -3  -7  -5   71.08    2.37
   3  -7   5   69.14    2.67
  -3  -7  -5   67.84    2.43
  -3  -7  -5   75.00    2.40
  -3  -7  -5   69.64    2.20
  -3   7  -5   67.48    2.41
   3   7   5   67.53    2.41
  -3   7  -5   68.46    2.64
   3   7   5   72.72    2.63
  -3   7  -5   69.52    2.42
  -5  -7  -5  140.72    4.46
   5  -7   5  138.23    4.38
  -5  -7  -5  133.68    4.39
   5  -7   5  136.11    4.51
  -5  -7  -5  138.32    4.38
  -5   7  -5  137.22    4.52
  -5   7  -5  138.60    4.77
   5   7   5  153.56    4.86
   7  -7   5  174.37    5.67
  -7  -7  -5  180.16    5.59
   7  -7   5  176.21    5.51
  -7  -7  -5  174.93    5.59
  -7  -7  -5  177.15    5.85
  -7  -7  -5  179.07    5.51
   7   7   5  169.04    5.70
   7   7   5  175.71    6.03
  -7   7  -5  175.58    5.65
  -7   7  -5  182.20    5.97
  -9  -7  -5    1.36    0.33
   9  -7   5    1.80    0.29
   9  -7   5    1.65    0.41
  -9  -7  -5    1.27    0.61
  -9  -7  -5    1.51    0.29
  -9  -7  -5    1.15    0.28
   9   7   5    1.31    0.36
  -9   7  -5    1.08    0.44
  -9   7  -5    1.97    0.38
 -11  -7  -5  129.36    4.39
  11  -7   5  133.35    4.58
 -11  -7  -5  134.37    4.49
 -11  -7  -5  135.46    4.32
 -11  -7  -5  122.85    4.86
  11   7   5  133.80    4.64
 -11   7  -5  140.40    4.53
 -11   7  -5  134.30    4.88
 -13  -7  -5  131.63    5.14
 -13  -7  -5  132.75    4.47
 -13  -7  -5  132.19    4.63
 -13  -7  -5  130.88    4.60
 -13   7  -5  135.06    5.05
 -13   7  -5  139.58    4.62
 -15  -7  -5    7.38    1.13
 -15  -7  -5    9.71    0.86
 -15  -7  -5    5.99    1.47
 -15   7  -5    6.58    1.12
 -15   7  -5    9.86    0.95
 -17  -7  -5    1.15    0.50
 -17  -7  -5    1.05    0.61
 -17   7  -5    1.61    1.01
 -17   7  -5    1.80    0.62
 -19  -7  -5   15.78    1.58
 -19  -7  -5   15.49    1.34
  19   7   5   14.34    1.41
 -19   7  -5   16.07    2.34
 -19   7  -5   13.15    1.59
 -20  -8   5    2.65    1.85
 -20  -8   5    2.68    1.01
 -20  -8   5    0.02    1.93
 -20   8   5    5.23    1.79
  20   8  -5    1.97    0.89
 -20   8   5   -0.04    1.07
 -18  -8   5    6.56    1.58
 -18  -8   5    7.85    1.77
 -18  -8   5    5.58    0.98
 -18   8   5    5.35    1.04
  18   8  -5    5.03    0.86
 -18   8   5    4.85    1.53
 -16  -8   5   76.99    3.25
 -16  -8   5   81.22    4.00
 -16  -8   5   78.65    3.87
  16   8  -5   79.88    3.12
 -16   8   5   77.37    3.20
 -14  -8   5   44.04    2.67
 -14  -8   5   46.26    2.12
 -14  -8   5   46.77    2.64
  14   8  -5   47.89    2.75
  14   8  -5   46.67    2.07
 -14   8   5   42.93    2.02
 -12  -8   5    4.09    0.88
 -12  -8   5    4.23    1.01
 -12  -8   5    3.97    0.64
 -12  -8   5    3.29    0.39
 -12   8   5    4.95    0.52
  12   8  -5    2.92    0.52
  12   8  -5    3.45    0.90
 -12   8   5    2.68    0.49
 -10  -8   5    1.68    0.70
 -10  -8   5    2.30    0.74
 -10  -8   5    3.36    0.34
 -10  -8   5    2.21    0.44
  10   8  -5    2.58    0.46
  10   8  -5    3.30    0.80
 -10   8   5    3.02    0.36
 -10   8   5    2.51    0.37
  -8  -8   5   53.79    2.47
   8  -8  -5   56.11    2.05
  -8  -8   5   53.54    2.46
  -8  -8   5   54.22    2.16
  -8  -8   5   55.05    1.86
  -8   8   5   59.11    1.76
   8   8  -5   54.97    2.50
   8   8  -5   56.02    2.17
   6  -8  -5  149.12    4.66
  -6  -8   5  147.49    5.10
  -6  -8   5  146.72    4.49
   6  -8  -5  141.63    4.63
   6   8  -5  142.32    5.06
   6   8  -5  142.82    4.77
  -4  -8   5    7.73    0.84
   4  -8  -5    8.57    0.54
  -4  -8   5    8.27    0.64
   4  -8  -5    8.54    0.56
  -4  -8   5    8.94    0.55
   4   8  -5    9.00    0.50
   4   8  -5    8.97    0.88
  -4   8   5    9.16    0.60
   4   8  -5    8.39    0.61
  -2  -8   5   17.62    0.87
   2  -8  -5   18.64    0.84
   2  -8  -5   18.37    0.82
  -2  -8   5   18.26    0.81
  -2  -8   5   18.36    1.13
  -2   8   5   19.77    0.73
  -2   8   5   17.68    0.82
   2   8  -5   16.39    1.09
   2   8  -5   17.70    0.90
  -2   8   5   17.12    0.83
   2   8  -5   17.76    0.77
   0  -8   5  126.49    4.02
   0  -8   5  128.32    4.05
   0  -8  -5  125.63    4.06
   0  -8   5  123.11    4.40
   0  -8  -5  125.46    4.01
   0   8  -5  126.92    4.38
   0   8  -5  127.73    4.39
   0   8   5  130.93    3.99
   0   8   5  126.01    4.16
   0   8   5  126.52    4.05
   0   8  -5  124.58    4.14
  -2  -8  -5  274.18    8.44
  -2  -8  -5  266.66    8.36
   2  -8   5  282.77    8.40
  -2  -8  -5  282.60    8.31
   2  -8   5  277.18    8.81
   2  -8   5  269.30    8.41
   2   8   5  267.92    8.43
  -2   8  -5  267.27    8.75
   2   8   5  283.39    8.68
  -2   8  -5  275.08    8.52
  -4  -8  -5    6.67    0.47
  -4  -8  -5    6.85    0.42
  -4  -8  -5    6.50    0.71
   4  -8   5    6.07    0.45
   4  -8   5    6.13    0.54
  -4  -8  -5    5.84    0.49
  -4  -8  -5    7.43    0.89
  -4   8  -5    6.43    0.68
   4   8   5    6.69    0.92
   4   8   5    6.26    0.55
  -4   8  -5    6.82    0.52
  -4   8  -5    7.74    0.73
   6  -8   5   99.88    3.24
  -6  -8  -5   99.87    3.24
  -6  -8  -5   99.01    3.24
  -6  -8  -5   98.47    3.30
   6  -8   5   96.81    3.37
   6   8   5   96.55    3.37
  -6   8  -5   99.19    3.37
  -6   8  -5   97.84    3.64
   6   8   5  102.19    3.76
  -8  -8  -5   29.28    1.25
  -8  -8  -5   28.16    1.20
  -8  -8  -5   29.04    1.26
   8  -8   5   28.24    1.32
   8  -8   5   28.18    1.20
  -8  -8  -5   27.86    1.63
   8   8   5   29.20    1.35
  -8   8  -5   28.39    1.31
  -8   8  -5   28.45    1.58
   8   8   5   30.78    1.94
 -10  -8  -5   24.28    1.69
  10  -8   5   22.30    1.26
 -10  -8  -5   22.94    1.19
 -10  -8  -5   23.09    1.12
  10   8   5   21.78    1.26
 -10   8  -5   21.79    1.47
 -10   8  -5   22.00    1.16
 -12  -8  -5   19.49    1.86
 -12  -8  -5   16.49    0.98
 -12  -8  -5   16.50    1.11
 -12   8  -5   16.82    1.42
 -12   8  -5   17.20    1.09
 -14  -8  -5   13.01    1.13
 -14  -8  -5   13.43    0.97
 -14   8  -5   13.87    1.07
 -14   8  -5   12.85    1.53
 -16  -8  -5   25.72    1.45
 -16  -8  -5   26.74    1.67
 -16   8  -5   26.68    1.65
 -16   8  -5   30.12    2.25
 -18  -8  -5   65.10    2.90
 -18  -8  -5   60.85    2.60
  18   8   5   59.98    2.73
 -18   8  -5   63.51    3.52
 -18   8  -5   61.39    2.83
 -20  -8  -5    5.22    0.87
 -20  -8  -5    6.03    1.17
  20   8   5    4.64    0.98
 -20   8  -5    5.58    1.65
 -20   8  -5    5.70    1.11
 -19  -9   5    4.53    0.98
 -19  -9   5    5.45    2.15
 -19  -9   5    8.02    1.93
 -19   9   5    7.26    1.90
  19   9  -5    4.66    0.95
 -17  -9   5    2.55    0.75
 -17  -9   5    5.10    1.66
 -17  -9   5    4.74    1.47
  17   9  -5    3.53    0.77
 -17   9   5    1.98    0.82
 -15  -9   5   12.26    1.93
 -15  -9   5   14.86    1.30
 -15  -9   5   18.28    2.20
  15   9  -5   15.40    1.24
 -13  -9   5   12.59    1.61
 -13  -9   5   11.24    1.05
 -13  -9   5   14.66    1.78
  13   9  -5   12.92    1.79
  13   9  -5   13.22    1.06
 -13   9   5   12.60    0.97
 -11  -9   5    0.19    0.25
 -11  -9   5    0.56    0.74
 -11  -9   5    0.46    0.35
 -11  -9   5    0.14    0.62
 -11   9   5    0.26    0.29
 -11   9   5    0.17    0.31
  11   9  -5    0.84    0.40
  11   9  -5   -0.08    0.63
   9  -9  -5   37.13    1.57
  -9  -9   5   36.64    1.69
  -9  -9   5   36.86    1.36
  -9  -9   5   39.47    2.10
  -9  -9   5   37.46    2.08
   9   9  -5   38.98    2.11
   9   9  -5   36.91    1.69
  -9   9   5   36.97    1.38
  -9   9   5   39.24    1.28
  -7  -9   5    0.38    0.20
   7  -9  -5    0.63    0.24
  -7  -9   5    0.18    0.49
   7   9  -5    0.54    0.52
   7   9  -5    0.48    0.30
   5  -9  -5   53.69    2.02
  -5  -9   5   57.47    2.04
   5  -9  -5   55.85    2.01
  -5  -9   5   53.71    2.06
  -5  -9   5   56.63    2.44
  -5   9   5   53.32    2.00
   5   9  -5   58.09    2.46
  -5   9   5   55.81    1.82
   5   9  -5   54.69    2.13
  -3  -9   5   58.99    2.46
   3  -9  -5   56.81    2.06
   3  -9  -5   59.33    2.11
  -3  -9   5   59.00    2.09
  -3  -9   5   58.94    2.08
  -3   9   5   57.86    2.02
  -3   9   5   56.82    1.94
  -3   9   5   56.15    2.04
   3   9  -5   61.74    2.22
   3   9  -5   56.57    2.45
  -3   9   5   60.88    1.91
  -3   9   5   61.30    2.12
  -1  -9   5    1.67    0.25
  -1  -9   5    2.26    0.33
   1  -9  -5    1.94    0.29
   1  -9  -5    2.10    0.32
  -1  -9   5    2.16    0.47
  -1   9   5    2.74    0.36
  -1   9   5    2.37    0.34
  -1   9   5    1.92    0.34
   1   9  -5    1.86    0.52
  -1   9   5    2.28    0.36
   1   9  -5    1.73    0.31
  -1   9   5    2.16    0.38
  -1  -9  -5    0.26    0.19
   1  -9   5    0.76    0.33
  -1  -9  -5    0.28    0.20
   1  -9   5    0.67    0.19
   1  -9   5    0.10    0.23
   1   9   5    0.21    0.32
  -1   9  -5    0.37    0.22
   1   9   5    0.47    0.22
  -1   9  -5    0.40    0.33
  -1   9  -5    0.27    0.60
  -3  -9  -5   61.79    2.22
  -3  -9  -5   60.54    2.20
  -3  -9  -5   59.80    2.14
   3  -9   5   63.90    2.16
  -3  -9  -5   64.79    2.18
   3  -9   5   61.31    2.15
   3  -9   5   63.76    2.57
  -3   9  -5   62.66    2.27
   3   9   5   59.47    2.16
   3   9   5   61.15    2.50
  -3   9  -5   62.55    2.53
   5  -9   5   60.10    2.17
  -5  -9  -5   61.88    2.38
  -5  -9  -5   62.56    2.20
   5  -9   5   61.60    2.14
  -5  -9  -5   60.80    2.13
  -5  -9  -5   61.17    2.06
   5   9   5   62.79    2.64
  -5   9  -5   62.29    2.27
   5   9   5   52.24    2.42
  -5   9  -5   61.78    2.53
  -7  -9  -5    4.29    0.79
  -7  -9  -5    5.35    0.52
   7  -9   5    4.24    0.46
  -7  -9  -5    4.00    0.50
   7  -9   5    4.12    0.59
  -7  -9  -5    5.77    0.53
  -7   9  -5    3.80    0.52
  -7   9  -5    3.76    0.66
   7   9   5    5.28    0.61
  -9  -9  -5    2.31    0.43
   9  -9   5    3.30    0.53
  -9  -9  -5    3.05    0.83
   9  -9   5    2.48    0.37
  -9  -9  -5    2.99    0.42
  -9  -9  -5    2.99    0.43
   9   9   5    2.37    0.49
  -9   9  -5    2.46    0.63
  -9   9  -5    2.45    0.42
 -11  -9  -5   13.58    0.87
 -11  -9  -5   13.80    0.99
 -11   9  -5   14.31    1.32
 -11   9  -5   13.62    0.97
 -13  -9  -5   24.18    1.44
 -13  -9  -5   24.66    1.30
 -13   9  -5   27.23    1.45
 -13   9  -5   24.45    1.80
 -15  -9  -5    4.12    0.63
 -15  -9  -5    3.45    0.73
 -15   9  -5    4.16    1.07
 -15   9  -5    3.83    0.92
 -17  -9  -5    2.08    0.79
 -17  -9  -5    0.69    0.59
 -17   9  -5    1.63    1.14
 -17   9  -5    2.21    0.77
  17   9   5    2.89    0.75
 -19  -9  -5    6.20    1.17
 -19  -9  -5    7.66    1.07
 -19   9  -5    6.41    1.13
  19   9   5    5.92    0.93
 -19   9  -5    6.46    1.60
 -18 -10   5    3.74    1.98
 -18 -10   5   -0.49    1.55
 -18 -10   5   -0.61    0.80
  18  10  -5    0.56    0.75
 -18  10   5    1.50    0.91
 -16 -10   5    2.04    0.86
 -16 -10   5    2.38    1.38
 -16 -10   5    2.08    1.60
  16  10  -5    2.13    0.73
 -16  10   5    1.32    0.71
 -14 -10   5    1.82    1.20
 -14 -10   5    1.67    1.02
 -14 -10   5    1.45    0.57
  14  10  -5    0.64    1.16
 -14  10   5    0.56    0.54
  14  10  -5    1.21    0.54
 -12 -10   5    0.14    0.43
 -12 -10   5    0.53    0.98
 -12 -10   5    0.70    0.80
 -12 -10   5    1.06    0.44
 -12  10   5    0.27    0.39
  12  10  -5    0.59    0.45
  12  10  -5    0.84    0.99
 -10 -10   5    8.42    0.84
 -10 -10   5    6.68    1.13
  10 -10  -5    9.29    0.76
 -10 -10   5    7.16    1.05
  10  10  -5    6.66    0.81
 -10  10   5    7.46    0.60
  10  10  -5   10.29    1.46
  -8 -10   5    2.00    0.66
   8 -10  -5    0.68    0.31
   8  10  -5    0.68    0.36
  -8  10   5    0.42    0.18
   8  10  -5    0.36    0.57
   6 -10  -5    3.96    0.52
  -6 -10   5    4.10    0.49
  -6 -10   5    3.89    0.49
   6 -10  -5    4.37    0.52
  -6 -10   5    4.09    0.77
  -6  10   5    4.24    0.55
  -6  10   5    3.66    0.28
  -6  10   5    3.55    0.32
   6  10  -5    3.91    0.56
   6  10  -5    4.32    0.78
  -6  10   5    3.66    0.45
  -4 -10   5    0.46    0.24
  -4 -10   5    0.50    0.46
   4 -10  -5    0.33    0.25
  -4 -10   5    0.44    0.31
   4 -10  -5    0.22    0.21
  -4  10   5    0.72    0.23
  -4  10   5    0.67    0.25
   4  10  -5    0.07    0.26
  -4  10   5    0.38    0.15
   4  10  -5    0.53    0.46
  -4  10   5    0.61    0.19
  -4  10   5    0.47    0.26
   2 -10  -5   15.72    0.81
  -2 -10   5   14.99    0.80
  -2 -10   5   16.67    1.17
  -2 -10   5   16.35    0.80
   2 -10  -5   15.01    0.84
   2  10  -5   14.84    0.88
  -2  10   5   14.44    0.72
  -2  10   5   15.63    0.84
   2  10  -5   13.88    1.10
  -2  10   5   15.22    0.87
  -2  10   5   15.15    0.75
   0 -10  -5   29.64    1.20
   0 -10  -5   29.46    1.25
   0 -10   5   27.65    1.19
   0 -10   5   28.87    1.13
   0 -10   5   28.15    1.52
   0  10   5   30.08    1.40
   0  10  -5   28.58    1.54
   0  10  -5   28.07    1.30
   0  10   5   27.34    1.11
  -2 -10  -5    4.25    0.46
   2 -10   5    4.57    0.44
   2 -10   5    4.01    0.44
   2 -10   5    3.67    0.60
  -2 -10  -5    3.32    0.46
  -2  10  -5    5.34    0.84
   2  10   5    4.90    0.69
   2  10   5    5.02    0.46
  -2  10  -5    5.05    0.73
  -2  10  -5    4.48    0.51
  -4 -10  -5    6.05    0.80
  -4 -10  -5    5.85    0.54
   4 -10   5    4.99    0.49
  -4 -10  -5    5.39    0.65
  -4 -10  -5    5.41    0.51
   4 -10   5    5.97    0.54
  -4  10  -5    5.86    0.61
   4  10   5    5.84    0.53
  -4  10  -5    7.29    0.83
   4  10   5    8.29    1.20
  -6 -10  -5    6.84    0.59
  -6 -10  -5    6.33    0.58
   6 -10   5    6.66    0.67
  -6 -10  -5    7.31    0.56
   6 -10   5    7.66    0.58
   6  10   5    5.90    0.63
  -6  10  -5    7.63    0.65
  -6  10  -5    5.54    0.85
   8 -10   5    0.51    0.24
   8 -10   5   -0.24    0.33
  -8 -10  -5    0.27    0.31
  -8 -10  -5    0.53    0.29
  -8 -10  -5   -0.05    0.24
  -8  10  -5    0.46    0.32
   8  10   5    0.38    0.35
  -8  10  -5   -0.27    0.42
 -10 -10  -5    1.06    0.36
  10 -10   5   -0.09    0.29
 -10 -10  -5    0.44    0.33
 -10 -10  -5    0.55    0.40
 -10  10  -5    0.75    0.37
 -10  10  -5    0.50    0.49
 -12 -10  -5    1.37    0.63
 -12 -10  -5    0.91    0.41
 -12 -10  -5    1.34    0.46
 -12  10  -5    1.18    0.45
 -12  10  -5    2.05    0.73
 -14 -10  -5    4.67    0.65
 -14 -10  -5    4.29    0.76
 -14  10  -5    5.10    0.76
 -14  10  -5    4.33    0.98
 -16 -10  -5    5.07    0.90
 -16 -10  -5    5.52    0.78
 -16  10  -5    6.09    1.23
  16  10   5    6.29    0.88
 -16  10  -5    4.77    0.93
 -18 -10  -5    3.50    0.81
 -18 -10  -5    3.21    0.98
  18  10   5    1.38    0.72
 -18  10  -5    0.97    1.26
 -18  10  -5    3.67    1.00
 -17 -11   5   21.09    3.08
 -17 -11   5   10.58    1.55
 -17  11   5   14.36    1.52
  17  11  -5   13.05    1.52
 -15 -11   5   16.27    1.46
 -15 -11   5   12.71    2.00
 -15 -11   5   16.57    2.23
 -15  11   5   13.70    1.26
  15  11  -5   13.09    1.35
 -13 -11   5   13.15    1.93
 -13 -11   5    9.94    1.13
 -13 -11   5   11.63    1.67
  13  11  -5    9.86    1.09
 -13  11   5   11.19    0.97
  13  11  -5   10.77    1.63
 -11 -11   5    1.27    0.84
 -11 -11   5    2.53    0.41
 -11 -11   5    1.35    0.53
  11  11  -5    1.81    0.54
  11  11  -5    0.89    0.98
 -11  11   5    2.04    0.44
   9 -11  -5   -0.17    0.31
  -9 -11   5    0.55    0.66
  -9 -11   5    0.42    0.31
  -9  11   5   -0.01    0.40
   9  11  -5    0.91    0.44
  -9  11   5    0.66    0.27
   9  11  -5   -0.12    0.73
  -7 -11   5    8.36    1.20
   7 -11  -5    9.38    0.73
  -7 -11   5    9.61    0.93
  -7 -11   5    8.10    0.70
  -7 -11   5    9.47    0.66
  -7  11   5    8.07    0.72
  -7  11   5    8.44    0.51
   7  11  -5    9.71    1.27
   7  11  -5    8.97    0.82
  -7  11   5    7.95    0.56
  -5 -11   5    4.52    0.76
  -5 -11   5    5.09    0.66
  -5 -11   5    4.97    0.56
   5 -11  -5    5.27    0.57
   5 -11  -5    5.07    0.58
  -5  11   5    5.46    0.37
   5  11  -5    6.22    0.66
  -5  11   5    5.20    0.52
  -5  11   5    5.53    0.60
  -5  11   5    4.81    0.41
   5  11  -5    4.80    0.79
  -3 -11   5   20.30    1.01
   3 -11  -5   19.87    1.04
  -3 -11   5   20.46    0.94
  -3 -11   5   19.00    1.36
   3 -11  -5   21.43    1.01
   3  11  -5   19.46    1.10
   3  11  -5   19.60    1.42
  -3  11   5   19.30    0.84
  -3  11   5   18.77    0.89
  -3  11   5   20.35    0.82
  -3  11   5   20.28    1.03
   1 -11  -5   32.51    1.41
  -1 -11   5   32.56    1.74
  -1 -11   5   33.54    1.38
  -1 -11   5   32.66    1.20
   1 -11  -5   33.72    1.38
  -1  11   5   34.07    1.23
   1  11  -5   30.98    1.46
  -1  11   5   31.50    1.17
  -1  11   5   33.36    1.24
  -1  11   5   33.09    1.53
  -1  11   5   34.05    1.23
   1  11  -5   31.38    1.75
  -1  11   5   32.77    1.37
   1 -11   5    1.22    0.48
  -1 -11  -5    1.05    0.32
   1 -11   5    1.00    0.26
  -1 -11  -5    0.87    0.28
   1 -11   5    0.64    0.25
   1  11   5    0.88    0.24
  -1  11  -5   -0.11    0.37
  -1  11  -5    0.29    0.28
   1  11   5    1.57    0.51
   3 -11   5  130.27    4.17
  -3 -11  -5  125.40    4.20
   3 -11   5  127.74    3.96
  -3 -11  -5  125.17    4.14
   3  11   5  124.97    4.01
  -3  11  -5  121.15    4.54
   3  11   5  131.07    4.58
  -3  11  -5  127.49    4.28
  -5 -11  -5    4.21    0.56
   5 -11   5    5.32    0.56
   5 -11   5    5.60    0.55
  -5 -11  -5    6.53    0.60
   5  11   5    5.19    0.57
  -5  11  -5    6.28    0.61
  -5  11  -5    4.83    0.78
   7 -11   5   11.99    0.79
  -7 -11  -5   12.84    0.79
  -7 -11  -5   12.76    0.84
  -7 -11  -5   13.72    0.87
  -7  11  -5   11.40    0.87
  -7  11  -5   14.42    1.23
  -9 -11  -5    0.86    0.41
   9 -11   5    0.94    0.35
  -9 -11  -5    0.93    0.37
  -9 -11  -5    1.65    0.40
  -9  11  -5    0.60    0.55
  -9  11  -5    1.00    0.41
  11 -11   5    1.17    0.40
 -11 -11  -5    0.99    0.40
 -11 -11  -5    0.65    0.42
 -11 -11  -5    2.17    0.54
 -11  11  -5    1.33    0.71
 -11  11  -5    1.12    0.49
 -13 -11  -5    1.46    0.57
 -13 -11  -5    2.90    0.57
 -13  11  -5    1.53    0.59
 -13  11  -5    2.67    0.92
 -15 -11  -5    8.37    1.18
 -15 -11  -5    6.87    0.94
 -15 -11  -5    6.47    0.83
 -15  11  -5    6.99    0.95
 -15  11  -5    6.35    1.29
  15  11   5    7.25    1.08
 -17 -11  -5    2.62    0.89
 -17 -11  -5    1.68    0.74
 -17 -11  -5    0.97    0.88
  17  11   5    2.39    0.78
 -17  11  -5    0.81    0.88
  17  11   5    0.12    1.53
 -17  11  -5    0.19    1.20
 -18 -12   5    3.07    1.17
 -16 -12   5   37.15    3.22
 -16 -12   5   31.16    2.06
  16  12  -5   30.80    1.99
 -16  12   5   31.09    1.78
 -14 -12   5    1.29    0.69
  14  12  -5    2.97    1.59
  14  12  -5    1.86    0.67
 -14  12   5    1.92    0.64
 -12 -12   5    3.47    1.13
  12  12  -5    4.61    1.39
 -12  12   5    2.05    0.51
  12  12  -5    2.95    0.66
 -10 -12   5    4.54    1.01
 -10 -12   5    4.88    0.67
 -10 -12   5    6.29    0.71
  10 -12  -5    4.34    0.60
  10  12  -5    4.39    1.10
 -10  12   5    4.09    0.66
 -10  12   5    3.97    0.58
  10  12  -5    4.59    0.71
  -8 -12   5   68.49    2.63
  -8 -12   5   70.87    2.65
  -8 -12   5   74.41    2.50
  -8 -12   5   66.33    3.10
   8 -12  -5   68.24    2.63
   8  12  -5   69.08    3.28
  -8  12   5   70.28    2.34
   8  12  -5   69.87    2.78
  -8  12   5   69.04    2.34
  -8  12   5   68.19    2.48
  -6 -12   5   71.12    2.66
  -6 -12   5   73.30    2.57
   6 -12  -5   72.69    2.72
   6 -12  -5   73.52    2.68
  -6 -12   5   72.41    3.11
   6  12  -5   70.43    2.80
  -6  12   5   71.62    2.42
   6  12  -5   72.20    3.23
  -6  12   5   72.96    2.42
  -6  12   5   72.97    2.50
  -4 -12   5   -0.54    0.52
  -4 -12   5    0.50    0.26
   4 -12  -5    0.08    0.28
  -4 -12   5    0.33    0.36
   4 -12  -5    0.46    0.31
  -4  12   5    0.24    0.24
  -4  12   5    0.23    0.21
  -4  12   5    0.00    0.37
   4  12  -5    0.54    0.33
   4  12  -5    0.76    0.55
  -2 -12   5   17.98    0.97
   2 -12  -5   18.05    0.98
  -2 -12   5   18.06    1.36
   2 -12  -5   17.16    1.00
  -2  12   5   17.71    0.92
   2  12  -5   18.04    1.40
  -2  12   5   17.46    0.81
  -2  12   5   16.47    1.09
   2  12  -5   18.98    1.08
   0 -12   5   29.86    1.33
   0 -12  -5   31.25    1.35
   0 -12  -5   29.54    1.36
   0 -12   5   30.23    1.73
   0  12  -5   28.38    1.70
   0  12   5   30.26    1.58
   0  12   5   28.44    1.27
   0  12  -5   29.22    1.43
   0  12   5   29.52    1.37
   2 -12   5   35.77    1.51
  -2 -12  -5   37.01    1.57
  -2 -12  -5   36.61    1.53
   2  12   5   37.11    1.47
  -2  12  -5   36.43    1.92
  -2  12  -5   35.23    1.61
   2  12   5   35.54    1.64
  -4 -12  -5    0.69    0.31
   4 -12   5    0.89    0.29
  -4 -12  -5    0.29    0.30
  -4  12  -5    1.15    0.39
  -4  12  -5    1.04    0.54
   6 -12   5    3.85    0.54
  -6 -12  -5    3.12    0.47
  -6 -12  -5    4.43    0.59
  -6  12  -5    4.05    0.76
  -6  12  -5    4.39    0.58
   8 -12   5   16.79    0.99
  -8 -12  -5   16.02    1.09
  -8 -12  -5   15.97    1.01
  -8 -12  -5   16.59    1.03
  -8  12  -5   15.00    1.05
  -8  12  -5   16.81    1.44
 -10 -12  -5   65.74    2.45
  10 -12   5   65.11    2.45
 -10 -12  -5   60.93    2.49
 -10 -12  -5   61.76    2.43
 -10  12  -5   62.55    2.56
 -12 -12  -5   -0.39    0.57
 -12 -12  -5    0.01    0.44
  12  12   5   -0.53    0.46
 -12  12  -5    0.93    0.58
 -12  12  -5    1.04    0.79
 -14 -12  -5   12.41    1.17
 -14 -12  -5   14.18    1.31
 -14 -12  -5   14.28    1.45
 -14  12  -5   13.50    1.81
  14  12   5   14.93    1.30
 -14  12  -5   13.74    1.40
 -16 -12  -5    2.56    0.98
 -16 -12  -5    1.60    0.84
 -16 -12  -5    0.80    0.66
 -16  12  -5    2.45    1.21
  16  12   5    1.25    1.46
 -16  12  -5    0.06    0.86
  16  12   5    0.81    0.73
 -15 -13   5    0.18    0.62
 -15 -13   5    0.21    2.31
  15  13  -5    1.42    0.77
 -15  13   5    0.94    0.67
 -13 -13   5   75.03    3.03
  13  13  -5   76.88    4.45
  13  13  -5   76.15    3.22
 -11 -13   5   56.25    2.39
 -11 -13   5   56.99    3.12
  11  13  -5   53.92    2.54
  11  13  -5   61.02    3.41
  -9 -13   5   11.85    1.65
  -9 -13   5   11.17    1.27
   9  13  -5   10.30    1.44
   9  13  -5    8.50    1.34
  -7 -13   5    0.50    0.76
   7 -13  -5    1.01    0.39
  -7 -13   5    0.72    0.38
   7  13  -5    1.18    0.49
   7  13  -5    0.19    0.74
  -7  13   5    0.69    0.31
  -7  13   5    0.13    0.41
   5 -13  -5   76.58    2.89
  -5 -13   5   80.19    3.32
   5 -13  -5   78.26    2.84
  -5 -13   5   78.36    2.86
  -5  13   5   74.61    2.62
   5  13  -5   74.30    3.40
   5  13  -5   76.21    2.99
  -5  13   5   78.99    2.78
  -3 -13   5   50.07    2.38
  -3 -13   5   50.51    1.97
   3 -13  -5   47.20    1.99
   3 -13  -5   47.78    1.95
  -3  13   5   46.75    1.85
  -3  13   5   49.53    1.74
  -3  13   5   46.71    2.03
   3  13  -5   49.85    2.49
   3  13  -5   48.19    2.08
  -1 -13   5   20.89    1.51
  -1 -13   5   20.03    1.07
   1 -13  -5   18.86    1.11
   1 -13  -5   19.91    1.09
   1  13  -5   19.04    1.16
   1  13  -5   20.25    1.53
  -1  13   5   19.31    1.07
   1 -13   5    0.87    0.32
  -1 -13  -5    0.92    0.33
  -1 -13  -5    0.62    0.35
  -1  13  -5    0.42    0.59
  -1  13  -5    1.22    0.39
   1  13   5    0.63    0.39
   1  13   5    0.51    0.30
   3 -13   5   78.59    2.75
  -3 -13  -5   71.38    2.70
  -3 -13  -5   75.08    2.78
   3  13   5   72.81    2.92
  -3  13  -5   79.79    2.91
   3  13   5   76.26    2.69
  -3  13  -5   70.33    3.15
   5 -13   5   82.26    2.90
  -5 -13  -5   80.73    2.94
  -5 -13  -5   80.70    2.88
   5  13   5   82.35    2.91
  -5  13  -5   79.76    3.36
   5  13   5   73.12    3.13
  -5  13  -5   79.19    2.98
  -7 -13  -5   15.34    1.37
   7 -13   5   14.88    0.97
  -7 -13  -5   12.91    0.99
  -7  13  -5   15.02    1.08
   7  13   5   16.05    1.04
  -7  13  -5   14.75    1.46
   7  13   5   12.82    1.29
  -9 -13  -5    6.47    0.88
  -9 -13  -5    8.47    0.86
   9 -13   5    7.18    0.83
  -9  13  -5    7.01    1.10
  -9  13  -5    7.85    0.95
   9  13   5    8.87    0.92
  11 -13   5   14.46    1.14
 -11 -13  -5   16.13    1.23
 -11 -13  -5   17.74    1.33
 -11 -13  -5   15.04    1.14
 -11  13  -5   14.87    1.41
  11  13   5   16.23    1.77
  11  13   5   15.83    1.25
 -11  13  -5   16.20    1.70
 -13 -13  -5   64.93    2.66
 -13 -13  -5   70.66    2.81
 -13 -13  -5   66.89    2.72
  13  13   5   66.40    3.42
 -13  13  -5   65.23    3.32
  13  13   5   62.11    2.79
 -13  13  -5   63.60    2.84
 -15 -13  -5    7.76    1.03
 -15 -13  -5    6.88    0.93
 -15 -13  -5    8.65    1.19
  15  13   5    5.97    1.59
  15  13   5    6.76    0.99
 -15  13  -5    6.17    1.01
 -15  13  -5    5.45    1.33
 -14 -14   5   36.82    1.98
  14  14  -5   35.50    2.15
 -12 -14   5   17.84    1.31
 -12 -14   5   14.99    2.99
  12  14  -5   19.57    2.75
  12  14  -5   14.64    1.47
  10 -14  -5   50.82    2.26
 -10 -14   5   52.44    2.28
 -10 -14   5   53.74    3.03
  10  14  -5   52.23    3.88
  10  14  -5   52.28    2.45
  -8 -14   5  169.13    5.97
  -8 -14   5  156.80    5.41
   8 -14  -5  166.12    5.46
  -8  14   5  163.02    5.10
   8  14  -5  151.63    5.56
   8  14  -5  156.13    6.15
  -6 -14   5   46.01    2.36
  -6 -14   5   49.35    2.56
   6 -14  -5   48.62    2.06
  -6  14   5   47.24    1.79
   6  14  -5   48.28    2.70
   6  14  -5   43.42    2.17
   4 -14  -5    3.33    0.55
  -4 -14   5    3.24    0.52
   4 -14  -5    3.61    0.60
  -4 -14   5    3.48    0.90
   4  14  -5    4.30    0.90
  -4  14   5    3.67    0.51
   4  14  -5    3.99    0.65
  -2 -14   5   65.45    2.90
  -2 -14   5   61.04    2.41
   2 -14  -5   60.66    2.47
   2 -14  -5   64.00    2.45
  -2  14   5   67.22    2.28
  -2  14   5   60.32    2.38
   2  14  -5   59.76    2.95
   2  14  -5   62.31    2.56
   0 -14  -5   55.67    2.25
   0 -14  -5   57.60    2.32
   0 -14   5   56.12    2.25
   0  14  -5   56.50    2.37
   0  14   5   58.01    2.33
   0  14  -5   56.97    2.78
   0  14   5   60.23    2.14
   2 -14   5   12.27    0.90
  -2 -14  -5   10.98    0.94
  -2 -14  -5   11.36    0.91
  -2  14  -5   11.09    1.36
   2  14   5   12.73    1.05
   2  14   5   14.00    0.90
  -2  14  -5   12.22    1.00
  -4 -14  -5   42.40    1.81
  -4 -14  -5   40.49    1.82
   4 -14   5   38.19    1.76
   4  14   5   38.84    2.02
  -4  14  -5   42.87    2.28
  -4  14  -5   40.52    1.89
   4  14   5   43.18    1.77
   6 -14   5    7.69    0.80
  -6 -14  -5    7.65    1.03
  -6 -14  -5    8.81    0.87
   6  14   5    5.93    0.79
  -6  14  -5    8.17    1.16
   6  14   5    6.10    0.92
  -6  14  -5    8.71    0.93
   8 -14   5  140.30    4.79
  -8 -14  -5  139.16    4.82
  -8  14  -5  140.62    5.35
   8  14   5  142.95    4.86
   8  14   5  134.74    5.19
  -8  14  -5  145.97    4.93
  10 -14   5  106.20    3.70
 -10 -14  -5  104.60    3.69
 -10 -14  -5   99.13    3.67
 -10  14  -5   94.55    4.09
  10  14   5  104.44    3.79
 -10  14  -5   97.58    4.26
  10  14   5   97.46    4.16
 -12 -14  -5   -0.08    0.54
 -12 -14  -5   -0.32    0.63
 -12  14  -5   -0.77    0.92
  12  14   5   -1.63    0.88
 -12  14  -5    1.29    0.77
  12  14   5    1.02    0.61
 -14 -14  -5   27.53    1.87
 -14 -14  -5   30.15    1.72
 -14  14  -5   32.35    2.06
 -14  14  -5   22.66    2.37
  14  14   5   27.14    1.83
  14  14   5   26.94    2.62
 -13 -15   5   63.49    2.82
  13  15  -5   66.61    4.29
  13  15  -5   64.91    3.05
  11 -15  -5   99.28    3.80
 -11 -15   5  100.29    3.79
  11  15  -5  106.12    4.97
  11  15  -5   96.88    3.97
   9 -15  -5    2.41    0.65
  -9 -15   5    4.04    0.72
  -9 -15   5    2.63    1.29
  -9  15   5    2.52    0.50
   9  15  -5    3.23    0.77
   9  15  -5    2.13    1.30
  -7 -15   5   22.94    1.36
   7 -15  -5   22.75    1.39
  -7 -15   5   23.75    2.08
   7  15  -5   21.71    1.52
  -7  15   5   21.66    1.18
   7  15  -5   21.46    2.17
  -5 -15   5   14.27    1.73
   5 -15  -5   10.34    0.99
  -5 -15   5   11.89    1.00
   5  15  -5    9.89    1.08
  -3 -15   5  126.72    4.79
   3 -15  -5  123.92    4.34
  -3 -15   5  121.93    4.29
   3  15  -5  124.05    4.60
  -3  15   5  116.32    4.48
   3  15  -5  118.62    6.04
   1 -15  -5   78.31    3.02
   1 -15  -5   78.70    2.99
   1  15  -5   80.65    3.12
   1  15  -5   75.70    4.47
  -1 -15  -5   20.72    1.27
   1 -15   5   19.77    1.65
  -1 -15  -5   19.38    1.21
   1  15   5   19.41    1.32
  -1  15  -5   14.68    2.35
  -1  15  -5   21.94    1.35
   1  15   5   21.88    1.14
  -3 -15  -5   88.06    3.27
  -3 -15  -5   88.26    3.39
   3 -15   5   80.01    3.63
   3  15   5   95.56    3.20
  -3  15  -5   90.69    3.36
   3  15   5   79.99    3.38
  -3  15  -5   90.27    3.79
   5 -15   5  130.76    4.46
  -5 -15  -5  125.95    4.45
  -5 -15  -5  129.11    4.50
  -5  15  -5  132.53    4.59
   5  15   5  133.07    4.45
   5  15   5  122.78    4.72
  -5  15  -5  125.98    4.99
   7 -15   5   12.40    1.06
  -7 -15  -5   13.65    1.13
  -7 -15  -5   11.37    1.09
   7  15   5   10.73    1.38
  -7  15  -5   11.69    1.59
   7  15   5   14.76    1.16
   9 -15   5   15.94    1.22
  -9 -15  -5   14.84    1.25
  -9 -15  -5   15.03    1.25
   9  15   5   14.26    1.66
   9  15   5   13.06    1.27
  -9  15  -5   11.00    1.70
  -9  15  -5   14.84    1.37
 -11 -15  -5   35.55    1.91
  11 -15   5   37.15    1.89
 -11 -15  -5   39.26    1.99
  11  15   5   35.67    2.55
 -11  15  -5   36.04    2.54
  11  15   5   37.70    2.03
 -11  15  -5   38.23    2.10
 -13 -15  -5   31.27    1.96
 -13 -15  -5   26.67    1.82
  13  15   5   31.18    1.99
 -13  15  -5   32.56    2.07
  13  15   5   34.89    2.74
 -13  15  -5   30.99    2.53
 -12 -16   5    3.20    0.70
  12  16  -5    0.33    0.89
  12  16  -5    2.12    1.85
 -10 -16   5   15.15    1.34
  10 -16  -5   16.87    1.41
  10  16  -5   13.65    1.53
  10  16  -5   14.13    2.09
   8 -16  -5   74.89    2.96
  -8 -16   5   66.34    2.88
  -8  16   5   74.30    2.67
   8  16  -5   72.81    3.15
   8  16  -5   69.86    3.85
  -6 -16   5   65.68    2.74
   6 -16  -5   63.80    2.73
  -6 -16   5   73.26    3.47
   6  16  -5   65.84    3.54
   6  16  -5   66.84    2.92
  -6  16   5   68.52    2.53
   4 -16  -5   14.06    1.18
  -4 -16   5   15.19    1.16
   4 -16  -5   16.80    1.28
   4  16  -5   15.03    1.31
  -4  16   5   14.96    1.10
   4  16  -5   13.22    1.93
   2 -16  -5   33.75    1.78
  -2 -16   5   35.43    1.75
   2 -16  -5   35.89    1.76
   2  16  -5   38.04    1.94
  -2  16   5   32.25    1.71
   2  16  -5   36.07    2.44
   0 -16  -5  106.33    3.90
   0 -16   5  108.17    3.82
   0 -16  -5  107.14    3.82
   0  16  -5  104.65    4.46
   0  16   5   98.15    3.85
   0  16  -5  110.39    4.00
  -2 -16  -5   59.41    2.55
   2 -16   5   59.51    2.50
  -2 -16  -5   58.28    2.49
   2  16   5   70.05    2.57
  -2  16  -5   63.30    3.11
  -2  16  -5   62.45    2.69
   2  16   5   58.74    2.68
   4 -16   5    5.66    0.74
  -4 -16  -5    4.70    0.70
  -4 -16  -5    6.45    0.81
  -4  16  -5    6.67    1.18
   4  16   5    6.23    0.97
  -4  16  -5    6.24    0.89
   4  16   5    7.80    0.98
  -6 -16  -5   16.68    1.29
   6 -16   5   18.54    1.27
  -6 -16  -5   15.77    1.29
   6  16   5   15.56    1.98
  -6  16  -5   18.36    1.45
  -6  16  -5   16.06    1.80
   6  16   5   13.97    1.53
  -8 -16  -5   82.41    3.28
   8 -16   5   87.59    3.26
  -8 -16  -5   84.32    3.25
  -8  16  -5   88.31    3.42
   8  16   5   85.96    3.32
   8  16   5   75.56    3.62
  -8  16  -5   80.96    3.85
  10 -16   5   35.64    1.91
 -10 -16  -5   36.81    1.95
 -10 -16  -5   35.01    1.95
 -10  16  -5   34.18    2.56
  10  16   5   30.04    2.36
 -10  16  -5   39.26    2.19
  10  16   5   36.06    2.05
 -12 -16  -5    6.07    0.96
 -12 -16  -5    6.85    1.02
   9 -17  -5    3.18    0.86
  -9 -17   5    4.35    0.83
   9  17  -5    4.54    0.96
   9  17  -5    6.93    1.84
  -7 -17   5    0.27    0.61
   7 -17  -5    0.69    0.60
  -7  17   5    1.64    0.62
   7  17  -5    2.85    1.39
  -5 -17   5   32.02    1.73
   5 -17  -5   28.77    1.73
  -5  17   5   27.53    1.54
   5  17  -5   30.54    1.90
   5  17  -5   26.69    2.58
  -3 -17   5   68.26    2.80
   3 -17  -5   65.65    2.77
   3 -17  -5   67.56    2.90
   3  17  -5   69.20    3.60
   3  17  -5   70.15    3.00
  -3  17   5   65.10    2.69
   1 -17  -5   65.36    2.73
  -1 -17   5   70.29    2.78
   1 -17  -5   66.32    2.83
   1  17  -5   67.64    3.50
   1  17  -5   67.46    2.93
  -1  17   5   65.43    2.80
  -1 -17  -5    2.88    0.70
   1 -17   5    3.99    0.73
  -1 -17  -5    2.05    0.67
  -1  17  -5    4.36    1.16
  -1  17  -5    4.99    0.86
   1  17   5    3.02    0.76
   3 -17   5  126.79    4.37
  -3 -17  -5  117.72    4.39
  -3 -17  -5  115.54    4.29
  -3  17  -5  116.74    4.95
  -3  17  -5  128.47    4.52
   3  17   5  118.42    4.56
  -5 -17  -5   78.17    3.24
  -5 -17  -5   80.94    3.21
   5 -17   5   80.25    3.20
  -5  17  -5   91.19    3.61
  -5  17  -5   79.22    3.81
   5  17   5   75.25    3.48
   5  17   5   88.18    3.23
  -7 -17  -5    0.33    0.71
   7 -17   5   -0.23    0.61
  -7 -17  -5    1.28    0.67
   7  17   5    1.15    0.95
   7  17   5    0.81    0.72
  -7  17  -5   -0.67    0.75
  -7  17  -5    0.64    1.02
  -9 -17  -5    2.25    0.79
   9 -17   5    3.60    0.80
  -9  17  -5    2.89    0.92
  -9  17  -5    2.49    1.19
   9  17   5    3.05    1.10
   9  17   5    2.73    0.89
   8 -18  -5   56.02    2.71
  -8 -18   5   56.52    2.67
  -6 -18   5   65.85    2.87
   6 -18  -5   69.60    2.93
   6  18  -5   65.20    3.09
   6  18  -5   66.71    3.90
  -6  18   5   70.22    2.67
   4 -18  -5   14.97    1.40
  -4 -18   5   13.54    1.34
   4  18  -5   12.82    1.85
   4  18  -5   11.67    1.54
  -4  18   5   13.04    1.32
   2 -18  -5   21.63    1.58
  -2 -18   5   22.81    1.56
   2 -18  -5   21.30    1.67
   2  18  -5   23.50    1.91
   2  18  -5   25.93    2.51
  -2  18   5   23.01    1.60
   0 -18  -5    9.72    1.28
   0 -18  -5    8.93    1.27
   0 -18   5    7.93    0.97
   0  18  -5   12.59    1.76
   0  18   5    9.06    1.36
   0  18  -5   11.60    1.51
  -2 -18  -5   27.12    1.74
  -2 -18  -5   29.92    1.82
   2 -18   5   29.70    1.72
  -2  18  -5   25.92    2.47
  -2  18  -5   31.41    1.99
   2  18   5   28.58    1.94
  -4 -18  -5    4.27    0.86
   4 -18   5    2.59    0.70
  -4 -18  -5    2.18    0.78
  -4  18  -5    4.10    0.97
  -4  18  -5    3.55    1.26
   4  18   5    2.88    0.92
  -6 -18  -5    3.42    0.84
   6 -18   5    2.31    0.80
  -6 -18  -5    2.19    0.80
  -6  18  -5    5.25    1.04
   6  18   5    2.63    1.01
  -6  18  -5    5.38    1.31
   1 -19  -5    3.67    0.96
   1 -19  -5    2.43    0.79
  -1 -19   5    1.60    0.79
   1  19  -5    2.12    1.54
   1  19  -5    1.32    0.94
  -1 -19  -5    1.27    0.79
  -1 -19  -5    0.30    0.81
   1 -19   5    0.36    0.74
   1  19   5    0.74    0.88
  -1  19  -5   -0.42    1.31
 -22   0   6   10.65    1.82
 -22   0   6   14.88    1.90
 -22   0   6   15.02    2.32
 -20   0   6   39.85    2.83
 -20   0   6   44.36    2.34
 -20   0   6   37.65    3.25
 -18   0   6   96.14    4.22
 -18   0   6   97.19    3.70
 -18   0   6   92.82    4.57
 -16   0   6  139.40    4.82
  16   0  -6  140.48    4.33
 -16   0   6  134.53    5.59
 -16   0   6  137.82    5.26
 -14   0   6   63.04    3.10
 -14   0   6   60.87    2.75
 -14   0   6   64.89    2.48
 -12   0   6   63.98    2.72
 -12   0   6   66.64    3.03
 -12   0   6   64.28    2.44
 -12   0   6   70.93    2.16
  12   0  -6   70.89    2.19
  12   0  -6   62.71    2.15
  12   0  -6   65.77    2.44
 -10   0   6  372.65   12.37
  10   0  -6  404.23   11.79
 -10   0   6  415.52   11.54
  10   0  -6  400.14   11.59
 -10   0   6  365.16   12.04
  10   0  -6  363.92   11.58
  -8   0   6  233.77    7.56
  -8   0   6  254.07    7.33
   8   0  -6  261.09    7.41
   8   0  -6  259.30    7.57
   8   0  -6  235.09    7.39
  -8   0   6  239.94    7.75
  -8   0   6  236.57    8.04
  -6   0   6  105.92    3.45
  -6   0   6   98.06    3.74
  -6   0   6  107.88    3.19
   6   0  -6  115.40    3.28
  -6   0   6  104.99    3.52
   6   0  -6  104.59    3.26
  -6   0   6  102.12    3.37
  -6   0   6  105.51    3.32
   4   0  -6  108.69    3.75
  -4   0   6  112.24    3.42
  -4   0   6  105.17    3.44
  -4   0   6  114.04    3.54
   4   0  -6  114.88    3.39
  -4   0   6  105.38    3.76
   4   0  -6  107.97    3.29
   4   0  -6  107.35    3.37
   4   0  -6  110.81    3.50
  -2   0   6  694.23   20.27
   2   0  -6  698.45   20.41
  -2   0   6  631.79   20.47
   2   0  -6  700.53   20.24
   2   0  -6  711.31   20.55
  -2   0   6  685.05   20.39
   2   0  -6  690.79   20.35
   2   0  -6  667.72   20.39
  -2   0   6  652.27   20.53
   0   0  -6  274.60    8.44
   0   0  -6  279.13    8.40
   0   0   6  266.79    8.44
   0   0   6  262.79    8.46
   0   0  -6  258.17    8.24
   0   0  -6  287.20    8.49
   0   0   6  277.67    8.41
   0   0   6  280.67    8.27
   2   0   6  268.74    8.72
   2   0   6  279.37    8.67
   2   0   6  298.42    8.73
  -2   0  -6  293.75    8.70
  -2   0  -6  289.38    8.73
   2   0   6  272.86    8.54
  -2   0  -6  284.38    8.69
  -2   0  -6  264.68    8.51
  -4   0  -6   45.39    1.65
   4   0   6   46.04    1.73
  -4   0  -6   47.95    1.81
   4   0   6   47.93    1.86
  -4   0  -6   45.83    1.83
   6   0   6  864.77   25.69
  -6   0  -6  872.77   25.60
  -6   0  -6  902.80   25.29
  -6   0  -6  833.41   25.67
   6   0   6  821.08   25.62
  -6   0  -6  810.95   25.41
  -8   0  -6  264.10    8.43
  -8   0  -6  281.84    8.20
  -8   0  -6  267.26    8.72
   8   0   6  273.95    8.64
  10   0   6    7.51    0.75
 -10   0  -6    6.11    0.59
 -10   0  -6    7.76    0.98
 -12   0  -6   69.00    3.02
 -12   0  -6   67.36    2.59
  12   0   6   69.48    2.77
 -14   0  -6  133.80    5.44
  14   0   6  132.44    4.78
 -14   0  -6  128.98    4.56
 -16   0  -6   72.88    3.63
 -16   0  -6   75.97    3.01
 -18   0  -6    6.01    1.46
 -18   0  -6    5.92    0.92
 -20   0  -6   10.17    1.28
 -20   0  -6    9.69    2.00
 -21  -1   6   76.80    4.10
 -21  -1   6   89.27    3.64
 -21  -1   6   78.41    4.59
 -21   1   6   84.57    3.59
 -21   1   6   81.23    4.70
 -21   1   6   75.49    4.07
 -19  -1   6   58.29    3.18
 -19  -1   6   53.82    3.49
 -19   1   6   53.33    3.01
 -19   1   6   58.89    2.62
 -19   1   6   50.19    3.38
 -17  -1   6    4.27    0.71
 -17  -1   6    2.44    1.08
 -17  -1   6    2.57    0.90
 -17   1   6    2.43    1.07
  17   1  -6    2.69    0.44
 -17   1   6    2.44    0.61
 -17   1   6    3.00    0.90
 -15  -1   6   85.92    3.26
 -15  -1   6   89.93    3.68
 -15  -1   6   85.21    3.94
 -15   1   6   87.47    3.60
 -15   1   6   86.08    3.96
 -15   1   6   90.83    3.24
  15   1  -6   86.19    2.88
 -13  -1   6  254.74    8.71
 -13  -1   6  257.86    8.04
 -13  -1   6  251.16    8.39
  13   1  -6  252.07    7.72
 -13   1   6  246.66    8.30
 -13   1   6  256.55    7.98
 -13   1   6  247.53    8.70
 -11  -1   6   10.69    0.44
 -11  -1   6    9.19    0.89
 -11  -1   6    9.65    1.08
 -11  -1   6    9.95    0.70
  11  -1  -6   10.07    0.75
 -11   1   6   10.66    0.54
  11   1  -6   11.43    0.90
 -11   1   6    8.95    0.83
  11   1  -6    9.08    0.65
 -11   1   6   10.10    1.10
  11   1  -6    8.57    0.55
  -9  -1   6    8.91    0.93
   9  -1  -6    9.75    0.62
  -9  -1   6    8.58    0.77
   9   1  -6   10.33    0.58
  -9   1   6    8.43    0.69
  -9   1   6    8.98    0.90
   9   1  -6    8.66    0.72
  -9   1   6    8.70    0.56
   9   1  -6    8.75    0.50
  -9   1   6   11.00    0.45
  -7  -1   6   49.29    1.97
  -7  -1   6   50.58    1.88
  -7  -1   6   48.57    1.79
   7  -1  -6   54.55    1.71
  -7  -1   6   47.76    2.15
  -7   1   6   50.48    1.69
  -7   1   6   48.51    2.19
  -7   1   6   49.45    1.87
   7   1  -6   49.22    1.69
  -7   1   6   46.99    1.73
  -7   1   6   50.97    1.80
   7   1  -6   53.00    1.72
  -7   1   6   55.02    1.61
   5  -1  -6  204.31    6.19
  -5  -1   6  197.97    6.57
   5  -1  -6  221.52    6.29
  -5  -1   6  195.34    6.35
  -5   1   6  208.42    6.37
  -5   1   6  212.86    6.26
  -5   1   6  209.49    6.27
  -5   1   6  212.90    6.19
  -5   1   6  196.16    6.28
   5   1  -6  221.25    6.31
  -5   1   6  205.74    6.70
   5   1  -6  194.29    6.28
   3  -1  -6  237.97    7.39
  -3  -1   6  240.37    7.82
   3  -1  -6  245.18    7.39
   3  -1  -6  246.01    7.50
   3  -1  -6  265.59    7.51
   3  -1  -6  228.73    7.38
   3  -1  -6  263.82    7.78
  -3  -1   6  248.27    7.51
  -3  -1   6  257.82    7.65
  -3  -1   6  227.68    7.68
  -3   1   6  240.86    7.77
   3   1  -6  237.51    7.48
   3   1  -6  257.45    7.64
  -3   1   6  251.21    7.57
  -3   1   6  247.34    7.41
   3   1  -6  274.09    8.13
   3   1  -6  235.02    7.34
  -3   1   6  232.77    7.69
   3   1  -6  252.76    7.83
   3   1  -6  255.25    7.50
  -3   1   6  255.47    7.47
   1  -1  -6    4.12    0.26
   1  -1  -6    4.33    0.48
   1  -1  -6    3.40    0.35
  -1  -1   6    3.43    0.39
   1  -1  -6    3.89    0.36
   1  -1  -6    4.11    0.24
  -1  -1   6    3.55    0.39
  -1  -1   6    3.72    0.33
   1  -1  -6    3.55    0.23
  -1  -1   6    3.65    0.45
  -1   1   6    3.59    0.40
  -1   1   6    3.53    0.39
   1   1  -6    3.93    0.31
  -1   1   6    3.85    0.37
   1   1  -6    3.72    0.40
  -1   1   6    4.15    0.30
   1   1  -6    3.83    0.54
   1   1  -6    3.45    0.42
  -1   1   6    4.05    0.18
   1   1  -6    3.57    0.28
   1  -1   6  294.94    9.45
  -1  -1  -6  281.03    9.20
   1  -1   6  325.31    9.45
  -1  -1  -6  306.93    9.44
   1  -1   6  309.11    9.28
  -1  -1  -6  317.22    9.37
  -1  -1  -6  329.96    9.42
   1  -1   6  299.26    9.44
   1   1   6  299.74    9.44
  -1   1  -6  298.14    9.26
  -1   1  -6  325.55    9.51
  -1   1  -6  311.77    9.44
  -1   1  -6  313.52    9.45
   1   1   6  311.97    9.26
   1   1   6  274.77    9.49
   1   1   6  305.85    9.38
  -3  -1  -6  363.04   11.57
  -3  -1  -6  382.38   11.77
  -3  -1  -6  419.13   11.74
   3  -1   6  381.56   11.76
   3  -1   6  403.82   11.83
   3  -1   6  364.89   11.78
   3   1   6  375.71   11.80
   3   1   6  392.19   11.81
  -3   1  -6  403.01   11.83
  -3   1  -6  362.07   11.61
   3   1   6  383.21   11.67
  -3   1  -6  389.12   11.82
  -5  -1  -6  101.55    2.89
  -5  -1  -6   91.52    3.09
  -5  -1  -6   94.24    3.31
   5  -1   6   95.31    3.33
  -5  -1  -6   97.80    3.23
   5  -1   6   89.31    3.27
  -5   1  -6  100.68    2.90
  -5   1  -6   89.66    3.31
   5   1   6   99.40    3.36
   5   1   6   93.66    3.29
  -5   1  -6   89.81    3.11
  -7  -1  -6   27.20    0.94
   7  -1   6   26.14    1.28
  -7  -1  -6   25.73    1.11
  -7  -1  -6   27.13    1.32
  -7  -1  -6   24.44    1.34
   7   1   6   24.63    1.26
   7   1   6   25.20    1.42
  -7   1  -6   27.16    1.36
  -7   1  -6   26.01    0.93
  -7   1  -6   26.62    1.13
  -9  -1  -6   85.51    3.27
  -9  -1  -6   85.73    2.71
   9  -1   6   82.12    3.10
  -9  -1  -6   86.13    2.94
  -9   1  -6   84.78    2.94
  -9   1  -6   80.69    3.24
  -9   1  -6   81.63    2.70
   9   1   6   86.24    3.12
 -11  -1  -6   85.23    3.09
  11  -1   6   86.62    3.29
 -11  -1  -6   87.45    3.49
  11   1   6   86.60    3.29
 -11   1  -6   89.65    3.52
 -11   1  -6   86.70    3.11
 -13  -1  -6  114.30    4.08
 -13  -1  -6  116.98    4.54
  13  -1   6  115.25    4.24
  13   1   6  115.05    4.26
 -13   1  -6  122.14    4.59
 -13   1  -6  115.17    4.07
  15  -1   6    2.21    0.61
 -15  -1  -6    3.22    1.00
 -15  -1  -6    1.49    0.47
  15   1   6    2.82    0.67
 -15   1  -6    2.70    0.56
 -15   1  -6    2.31    0.84
 -17  -1  -6   82.83    3.31
 -17  -1  -6   88.08    4.10
 -17   1  -6   79.66    3.29
 -17   1  -6   81.58    3.99
 -19  -1  -6   79.32    3.34
 -19  -1  -6   76.26    4.33
 -19   1  -6   74.31    3.30
 -19   1  -6   82.77    4.27
 -21  -1  -6   38.33    2.33
 -21  -1  -6   32.48    3.91
 -21   1  -6   39.34    2.37
 -21   1  -6   37.52    3.73
 -22  -2   6    1.09    1.48
 -22  -2   6    1.94    1.78
 -22  -2   6    1.31    1.05
 -22   2   6   -0.82    1.83
 -22   2   6   -0.40    1.27
 -20  -2   6   28.10    2.92
 -20  -2   6   26.32    1.91
 -20  -2   6   26.75    2.47
 -20   2   6   28.39    2.32
 -20   2   6   21.47    2.83
 -18  -2   6   39.49    2.86
 -18  -2   6   35.41    2.47
 -18  -2   6   41.94    2.07
 -18   2   6   34.89    2.33
 -18   2   6   41.15    2.03
 -18   2   6   40.63    2.86
  18   2  -6   37.49    1.62
 -16  -2   6   37.35    2.52
 -16  -2   6   37.78    2.30
 -16  -2   6   37.56    1.85
  16   2  -6   39.84    1.56
 -16   2   6   40.10    1.84
 -16   2   6   36.53    2.11
 -16   2   6   37.64    2.57
 -14  -2   6   29.16    2.01
 -14  -2   6   27.30    1.43
 -14  -2   6   29.61    0.99
 -14  -2   6   30.49    1.82
 -14   2   6   27.41    1.64
  14   2  -6   27.25    1.21
 -14   2   6   28.16    1.38
 -14   2   6   27.19    2.04
 -12  -2   6    1.62    0.60
 -12  -2   6    1.34    0.54
 -12  -2   6    1.60    0.35
 -12  -2   6    1.89    0.19
 -12   2   6    2.33    0.65
 -12   2   6    1.79    0.46
  12   2  -6    1.22    0.28
 -12   2   6    2.05    0.48
  12   2  -6    0.93    0.65
 -10  -2   6  116.57    4.22
 -10  -2   6  118.37    3.97
 -10  -2   6  120.70    4.48
 -10   2   6  124.45    3.73
 -10   2   6  112.95    4.45
  10   2  -6  119.26    3.83
  10   2  -6  123.53    4.07
 -10   2   6  120.97    3.86
  10   2  -6  113.49    3.80
 -10   2   6  119.08    4.07
  -8  -2   6  478.68   14.93
  -8  -2   6  491.92   14.72
  -8  -2   6  458.45   14.45
  -8   2   6  507.99   14.25
  -8   2   6  460.41   14.49
  -8   2   6  468.33   14.89
   8   2  -6  444.14   14.33
  -8   2   6  465.66   14.33
   8   2  -6  477.15   14.54
   8   2  -6  504.22   14.37
  -8   2   6  495.50   14.28
  -6  -2   6   13.41    0.69
  -6  -2   6   13.51    0.99
  -6  -2   6   14.33    0.79
  -6  -2   6   13.14    0.82
   6   2  -6   12.96    0.64
  -6   2   6   13.25    0.62
   6   2  -6   14.07    0.80
   6   2  -6   13.97    0.68
  -6   2   6   13.69    0.64
  -6   2   6   14.31    0.71
  -6   2   6   15.27    0.61
  -6   2   6   14.64    0.57
   4  -2  -6  103.81    3.20
  -4  -2   6  112.00    3.48
  -4  -2   6   97.21    3.33
  -4  -2   6   98.83    3.66
   4   2  -6  101.37    3.30
   4   2  -6  107.27    3.32
  -4   2   6  103.08    3.30
  -4   2   6   99.91    3.21
  -4   2   6  109.91    3.21
  -4   2   6  104.94    3.22
  -4   2   6  111.05    3.22
  -4   2   6  100.97    3.57
   4   2  -6  102.67    3.45
   2  -2  -6  242.52    7.01
   2  -2  -6  252.01    7.26
   2  -2  -6  225.50    6.99
  -2  -2   6  226.08    7.37
  -2  -2   6  240.38    7.24
  -2  -2   6  226.45    7.08
  -2  -2   6  220.83    7.25
   2  -2  -6  232.72    6.99
  -2   2   6  230.18    7.11
  -2   2   6  232.65    7.26
   2   2  -6  231.06    7.24
  -2   2   6  236.71    7.01
  -2   2   6  236.29    6.96
   2   2  -6  223.49    7.08
   2   2  -6  230.14    7.24
   2   2  -6  237.31    7.39
  -2   2   6  223.05    7.25
   2   2  -6  237.89    7.09
   0  -2  -6  109.77    3.41
   0  -2   6  102.22    3.55
   0  -2  -6  102.43    3.24
   0  -2  -6  102.76    3.46
   0  -2   6  107.14    3.47
   0  -2   6  101.87    3.48
   0  -2  -6  104.44    3.33
   0  -2  -6  100.52    3.20
   0  -2   6  104.91    3.15
   0   2  -6  102.16    3.32
   0   2   6  104.10    3.40
   0   2   6  104.31    3.39
   0   2  -6  102.98    3.47
   0   2   6  108.90    3.14
   0   2   6  104.34    3.49
   0   2   6  109.33    3.29
   0   2  -6  103.41    3.58
   2  -2   6   26.83    0.86
  -2  -2  -6   28.29    1.11
  -2  -2  -6   27.44    0.83
   2  -2   6   27.93    1.20
  -2  -2  -6   25.04    1.21
  -2  -2  -6   28.15    1.00
   2  -2   6   25.94    1.21
   2  -2   6   27.08    1.23
  -2  -2  -6   26.70    0.98
  -2  -2  -6   27.77    1.14
   2   2   6   24.96    1.02
   2   2   6   28.18    1.20
  -2   2  -6   25.92    1.19
  -2   2  -6   25.84    1.28
   2   2   6   26.52    1.05
   2   2   6   27.03    1.19
  -2   2  -6   27.45    1.06
  -2   2  -6   27.18    1.21
   4  -2   6    2.67    0.45
  -4  -2  -6    2.39    0.41
  -4  -2  -6    2.15    0.29
  -4  -2  -6    2.43    0.34
   4  -2   6    2.26    0.37
  -4   2  -6    2.17    0.30
  -4   2  -6    2.63    0.18
   4   2   6    2.26    0.40
  -4   2  -6    3.05    0.47
  -6  -2  -6  105.58    3.56
  -6  -2  -6  112.45    3.65
   6  -2   6  108.99    3.76
  -6  -2  -6  110.18    3.82
  -6   2  -6  109.23    3.85
   6   2   6  112.35    3.87
  -6   2  -6  106.19    3.60
  -6   2  -6  115.15    3.39
   6   2   6  109.42    3.77
  -8  -2  -6  184.37    5.83
   8  -2   6  184.94    6.02
  -8  -2  -6  176.68    6.09
  -8  -2  -6  181.09    5.92
  -8   2  -6  186.53    5.62
  -8   2  -6  187.94    5.85
   8   2   6  177.36    6.00
  -8   2  -6  189.09    6.17
 -10  -2  -6   94.33    3.30
  10  -2   6   93.42    3.46
 -10  -2  -6   86.53    3.90
 -10   2  -6  101.70    3.69
  10   2   6   95.71    3.48
 -10   2  -6   97.18    3.30
 -12  -2  -6   51.47    2.15
  12  -2   6   55.80    2.34
 -12  -2  -6   55.15    2.61
 -12   2  -6   53.28    2.56
  12   2   6   55.17    2.34
 -12   2  -6   52.94    2.16
  14  -2   6  119.84    4.30
 -14  -2  -6  114.03    4.59
 -14  -2  -6  111.79    4.08
 -14   2  -6  111.59    4.07
  14   2   6  116.10    4.30
 -14   2  -6  117.93    4.63
 -16  -2  -6   46.98    2.86
 -16  -2  -6   41.42    2.08
 -16   2  -6   46.89    2.73
 -16   2  -6   44.07    2.09
 -18  -2  -6   11.03    1.94
 -18  -2  -6   12.76    1.31
 -18   2  -6   13.23    1.81
 -18   2  -6   15.24    1.32
 -20  -2  -6    8.58    1.16
 -20  -2  -6    9.95    2.25
 -20   2  -6   11.87    1.51
 -20   2  -6   11.45    2.06
 -21  -3   6   12.83    1.90
 -21  -3   6    8.93    1.30
 -21  -3   6   11.58    2.11
 -21   3   6   13.12    2.04
 -21   3   6   11.47    2.11
 -19  -3   6   20.88    1.64
 -19  -3   6   26.89    2.62
 -19  -3   6   20.02    2.21
 -19   3   6   21.54    2.54
  19   3  -6   22.01    1.36
 -19   3   6   22.52    1.75
 -19   3   6   22.33    1.95
 -17  -3   6    3.19    0.66
 -17  -3   6    1.79    1.06
 -17  -3   6    2.78    0.97
  17   3  -6    2.37    0.53
 -17   3   6    2.80    0.68
 -15  -3   6   70.69    3.18
 -15  -3   6   71.02    3.41
 -15  -3   6   71.34    2.79
 -15   3   6   63.93    3.43
  15   3  -6   68.28    2.48
 -15   3   6   67.33    2.95
 -15   3   6   69.77    2.64
 -13  -3   6   17.86    1.58
 -13  -3   6   17.61    1.08
 -13  -3   6   17.32    1.39
 -13   3   6   17.32    1.00
  13   3  -6   17.65    0.94
  13   3  -6   19.40    1.49
 -13   3   6   17.48    1.56
 -13   3   6   17.95    1.22
 -11  -3   6   25.79    1.53
 -11  -3   6   27.26    1.71
 -11  -3   6   26.06    1.27
 -11   3   6   25.44    1.69
 -11   3   6   26.49    1.14
 -11   3   6   25.72    1.32
  11   3  -6   28.10    1.48
  11   3  -6   26.50    1.14
  -9  -3   6    1.76    0.45
  -9  -3   6    1.52    0.48
  -9  -3   6    1.29    0.28
  -9   3   6    1.55    0.34
   9   3  -6    1.63    0.29
   9   3  -6    1.47    0.43
  -9   3   6    1.88    0.28
  -9   3   6    1.79    0.26
  -9   3   6    2.00    0.55
  -7  -3   6   64.35    2.66
  -7  -3   6   62.35    2.28
  -7  -3   6   64.62    2.50
  -7  -3   6   69.94    2.43
  -7   3   6   66.88    2.16
   7   3  -6   62.55    2.21
  -7   3   6   65.53    2.11
   7   3  -6   65.09    2.42
  -7   3   6   61.74    2.21
  -7   3   6   67.18    2.07
  -7   3   6   63.94    2.61
  -7   3   6   65.10    2.11
   7   3  -6   66.76    2.28
  -5  -3   6   73.09    2.88
   5  -3  -6   76.09    2.41
  -5  -3   6   71.96    2.55
  -5  -3   6   68.87    2.73
  -5  -3   6   79.27    2.69
  -5   3   6   73.64    2.42
   5   3  -6   75.03    2.53
  -5   3   6   75.82    2.43
  -5   3   6   78.24    2.37
   5   3  -6   77.01    2.70
  -5   3   6   80.65    2.42
  -5   3   6   73.67    2.78
  -5   3   6   80.45    2.36
  -3  -3   6   28.01    1.59
  -3  -3   6   28.62    1.27
  -3  -3   6   31.85    1.30
   3  -3  -6   30.13    1.05
  -3   3   6   31.21    1.01
  -3   3   6   30.82    1.09
  -3   3   6   33.42    1.07
  -3   3   6   29.25    1.28
   3   3  -6   30.57    1.16
  -3   3   6   30.97    1.04
  -3   3   6   28.55    1.26
   3   3  -6   28.23    1.14
   3   3  -6   28.57    1.28
   1  -3  -6    7.78    0.37
  -1  -3   6    7.71    0.56
   1  -3  -6    8.67    0.38
  -1  -3   6    7.70    0.35
   1  -3  -6    8.22    0.40
   1  -3  -6    8.68    0.39
  -1  -3   6    8.21    0.62
  -1  -3   6    6.40    0.63
   1   3  -6    7.99    0.51
  -1   3   6    8.65    0.41
   1   3  -6    7.44    0.58
  -1   3   6    7.02    0.46
  -1   3   6    8.17    0.56
  -1   3   6    8.77    0.35
  -1   3   6    7.94    0.52
   1   3  -6    7.60    0.63
   1   3  -6    7.44    0.46
  -1  -3  -6  181.71    5.35
  -1  -3  -6  165.31    5.26
   1  -3   6  173.26    5.59
  -1  -3  -6  162.27    5.19
   1  -3   6  170.36    5.50
  -1  -3  -6  167.75    5.14
   1  -3   6  169.22    5.16
  -1  -3  -6  185.46    5.33
   1  -3   6  173.50    5.49
  -1  -3  -6  173.03    5.47
   1   3   6  167.42    5.47
  -1   3  -6  171.18    5.47
  -1   3  -6  171.46    5.35
   1   3   6  174.06    5.43
  -1   3  -6  165.82    5.51
   1   3   6  174.34    5.31
   1   3   6  173.11    5.28
   3  -3   6   80.30    2.82
   3  -3   6   80.02    2.49
  -3  -3  -6   84.89    2.79
  -3  -3  -6   76.34    2.63
  -3  -3  -6   77.19    2.59
   3  -3   6   86.11    2.90
  -3  -3  -6   85.90    2.64
  -3  -3  -6   81.36    2.47
   3  -3   6   78.06    3.05
   3   3   6   77.45    2.82
   3   3   6   78.81    2.82
  -3   3  -6   83.42    2.91
  -3   3  -6   77.28    2.71
  -3   3  -6   84.84    2.50
  -5  -3  -6    0.89    0.27
  -5  -3  -6    0.59    0.20
  -5  -3  -6    0.89    0.33
   5  -3   6    0.68    0.27
  -5   3  -6    0.67    0.20
  -5   3  -6    1.44    0.39
   5   3   6    0.52    0.35
  -5   3  -6    0.74    0.15
   5   3   6    0.62    0.27
  -7  -3  -6   16.91    0.92
  -7  -3  -6   16.27    0.81
   7  -3   6   15.52    0.95
  -7  -3  -6   15.53    1.04
   7   3   6   15.62    1.15
   7   3   6   15.17    0.95
  -7   3  -6   17.51    0.70
  -7   3  -6   15.15    1.10
   9  -3   6    2.22    0.42
  -9  -3  -6    2.51    0.54
  -9  -3  -6    3.33    0.45
  -9  -3  -6    4.00    0.63
  -9   3  -6    3.53    0.46
  -9   3  -6    3.90    0.67
   9   3   6    3.12    0.52
 -11  -3  -6   79.08    2.91
  11  -3   6   79.97    3.08
 -11  -3  -6   82.44    3.36
  11   3   6   79.47    3.09
 -11   3  -6   84.43    3.34
 -11   3  -6   79.83    2.92
 -13  -3  -6   82.81    3.08
 -13  -3  -6   85.19    3.57
  13  -3   6   81.22    3.23
  13   3   6   83.06    3.26
 -13   3  -6   84.56    3.09
 -13   3  -6   78.80    3.48
  15  -3   6    7.20    1.00
 -15  -3  -6    7.97    0.92
 -15  -3  -6    6.08    1.22
 -15   3  -6    6.58    0.86
 -15   3  -6    6.96    1.16
  15   3   6    6.77    0.98
 -17  -3  -6   48.35    3.17
 -17  -3  -6   41.82    2.17
 -17   3  -6   45.37    2.19
 -17   3  -6   47.25    2.93
 -19  -3  -6   83.97    5.32
 -19  -3  -6   82.33    3.47
 -19   3  -6   80.92    4.28
 -19   3  -6   81.75    3.46
 -21  -3  -6    0.75    0.89
 -21  -3  -6    1.52    0.75
 -21   3  -6    3.40    1.84
 -21   3  -6    3.52    0.99
 -22  -4   6    0.68    1.75
 -22  -4   6    2.06    1.09
 -22  -4   6    1.14    1.91
 -22   4   6   -1.07    1.87
 -22   4   6    0.14    1.27
 -20  -4   6    0.47    1.40
 -20  -4   6   -0.95    1.26
 -20  -4   6    0.94    0.80
 -20   4   6    0.45    1.47
  20   4  -6   -0.34    0.73
 -20   4   6    0.77    1.01
 -18  -4   6   13.13    2.04
 -18  -4   6   16.29    2.18
 -18  -4   6   18.21    1.49
 -18   4   6   15.27    1.65
  18   4  -6   17.63    1.22
 -18   4   6   19.18    2.29
 -18   4   6   18.26    1.47
 -16  -4   6    8.96    1.37
 -16  -4   6    8.75    1.02
 -16  -4   6    8.24    1.25
 -16   4   6    9.33    1.49
 -16   4   6   11.09    1.27
 -16   4   6   11.43    1.03
  16   4  -6    9.65    0.89
 -14  -4   6    1.94    0.72
 -14  -4   6    2.29    0.50
 -14  -4   6    2.34    0.74
  14   4  -6    1.83    1.18
 -14   4   6    2.46    0.84
 -14   4   6    1.80    0.57
 -14   4   6    1.77    0.46
  14   4  -6    1.74    0.42
 -12  -4   6   10.46    1.17
 -12  -4   6   10.37    1.21
 -12  -4   6   10.70    0.82
 -12   4   6    9.71    0.68
 -12   4   6    8.33    0.83
 -12   4   6    9.29    1.20
  12   4  -6    9.71    0.72
  12   4  -6   11.84    1.24
 -10  -4   6  127.14    4.73
 -10  -4   6  130.53    4.61
 -10  -4   6  129.85    4.29
 -10   4   6  130.82    4.11
 -10   4   6  120.52    4.73
 -10   4   6  123.15    4.21
  10   4  -6  125.33    4.16
  10   4  -6  131.06    4.48
  -8  -4   6   46.90    2.11
  -8  -4   6   51.68    2.30
  -8  -4   6   49.35    1.90
   8   4  -6   47.75    1.83
  -8   4   6   51.90    1.69
  -8   4   6   54.53    1.64
  -8   4   6   50.75    1.80
   8   4  -6   51.12    2.10
  -8   4   6   46.90    2.21
  -6  -4   6    2.76    0.53
  -6  -4   6    4.27    0.42
  -6  -4   6    4.34    0.60
  -6  -4   6    5.19    0.61
   6  -4  -6    4.22    0.33
   6   4  -6    4.53    0.41
  -6   4   6    4.55    0.27
  -6   4   6    3.91    0.38
  -6   4   6    4.61    0.30
  -6   4   6    4.45    0.25
  -6   4   6    4.66    0.34
   6   4  -6    4.65    0.60
   4  -4  -6   10.76    0.51
  -4  -4   6   12.43    0.97
  -4  -4   6   11.07    0.76
  -4   4   6   10.10    0.74
  -4   4   6   10.86    0.48
  -4   4   6   11.91    0.43
   4   4  -6   11.61    0.78
  -4   4   6   11.23    0.52
  -4   4   6   11.17    0.43
   4   4  -6   10.83    0.61
  -4   4   6   10.66    0.54
   2  -4  -6    6.01    0.33
  -2  -4   6    5.49    0.51
  -2  -4   6    6.71    0.66
   2  -4  -6    6.58    0.37
  -2  -4   6    7.52    0.61
   2   4  -6    7.30    0.31
  -2   4   6    7.01    0.35
  -2   4   6    6.53    0.52
  -2   4   6    6.70    0.33
   2   4  -6    5.00    0.48
  -2   4   6    6.51    0.40
   2   4  -6    6.25    0.58
  -2   4   6    6.14    0.41
  -2   4   6    6.89    0.51
   0  -4  -6   59.70    1.95
   0  -4   6   62.78    1.97
   0  -4  -6   65.48    1.97
   0  -4   6   59.19    2.20
   0  -4  -6   59.36    2.03
   0  -4   6   63.67    2.28
   0   4   6   60.67    2.13
   0   4   6   60.78    2.21
   0   4  -6   61.44    2.30
   0   4   6   63.26    1.95
   0   4   6   60.89    2.05
   0   4   6   64.04    2.01
   2  -4   6   12.00    0.83
  -2  -4  -6   11.74    0.47
  -2  -4  -6   12.52    0.51
  -2  -4  -6   13.15    0.56
   2  -4   6   11.37    0.71
  -2  -4  -6   12.52    0.67
   2  -4   6   12.22    0.49
   2  -4   6   11.19    0.82
  -2   4  -6   11.82    0.80
  -2   4  -6   10.89    0.79
   2   4   6   13.07    0.76
  -2   4  -6   12.16    0.65
   2   4   6   11.03    0.70
   2   4   6   12.58    0.51
   2   4   6   11.50    0.61
  -4  -4  -6    0.12    0.12
  -4  -4  -6    0.17    0.26
  -4  -4  -6    0.28    0.11
   4  -4   6    0.39    0.24
   4  -4   6    0.42    0.11
  -4  -4  -6    0.27    0.17
  -4  -4  -6    0.56    0.20
  -4   4  -6    0.47    0.14
  -4   4  -6    0.24    0.15
  -4   4  -6    0.17    0.27
   4   4   6    0.54    0.31
   4   4   6   -0.05    0.23
   6  -4   6    3.49    0.28
  -6  -4  -6    2.81    0.33
  -6  -4  -6    2.55    0.46
  -6  -4  -6    3.25    0.44
   6  -4   6    3.25    0.49
  -6  -4  -6    3.40    0.37
  -6   4  -6    2.75    0.32
  -6   4  -6    4.73    0.68
   6   4   6    2.57    0.52
  -6   4  -6    3.28    0.39
   6   4   6    3.59    0.49
  -8  -4  -6  208.52    6.74
  -8  -4  -6  204.83    6.43
  -8  -4  -6  200.16    6.38
  -8  -4  -6  215.32    6.40
   8  -4   6  203.15    6.61
  -8   4  -6  196.72    6.46
  -8   4  -6  203.93    6.79
   8   4   6  196.72    6.81
   8   4   6  206.03    6.64
  10  -4   6    0.41    0.34
 -10  -4  -6    0.54    0.50
 -10  -4  -6    1.13    0.58
 -10  -4  -6    0.90    0.29
  10   4   6    0.11    0.33
 -10   4  -6   -0.15    0.24
 -10   4  -6    0.69    0.45
 -12  -4  -6   23.39    1.78
  12  -4   6   25.31    1.43
 -12  -4  -6   24.00    1.28
  12   4   6   24.59    1.43
 -12   4  -6   23.88    1.28
 -12   4  -6   28.63    1.75
 -14  -4  -6    1.33    0.97
  14  -4   6    2.65    0.62
 -14  -4  -6    1.70    0.50
 -14   4  -6    1.70    0.80
  14   4   6    1.95    0.59
 -14   4  -6    2.27    0.52
 -16  -4  -6    3.57    0.79
 -16  -4  -6    5.97    1.36
 -16   4  -6    4.64    0.71
 -16   4  -6    4.99    1.25
 -18  -4  -6   11.88    1.13
 -18  -4  -6   14.64    2.14
 -18  -4  -6   12.82    1.32
 -18  -4  -6   11.60    1.70
 -18   4  -6   12.37    1.31
 -18   4  -6   14.83    2.18
 -20  -4  -6    1.93    0.81
 -20  -4  -6    0.24    0.63
 -20   4  -6   -1.00    1.43
 -20   4  -6    0.69    0.81
 -21  -5   6    2.93    1.70
 -21  -5   6    1.14    0.97
 -21  -5   6    1.54    1.77
 -21   5   6   -0.46    1.13
 -21   5   6    1.11    1.69
 -19  -5   6    6.55    1.61
 -19  -5   6    7.09    1.07
 -19  -5   6    6.27    1.55
 -19   5   6    6.56    1.55
  19   5  -6    6.83    0.89
 -19   5   6    6.30    1.16
 -17  -5   6    6.18    1.75
 -17  -5   6    9.36    2.23
 -17   5   6   11.11    1.14
 -17   5   6   10.30    1.68
 -17   5   6    7.33    1.10
  17   5  -6    9.08    1.00
 -15  -5   6   26.87    1.56
 -15  -5   6   29.12    2.14
 -15  -5   6   29.40    2.09
 -15   5   6   28.01    1.42
 -15   5   6   24.13    1.59
 -15   5   6   29.40    2.30
  15   5  -6   28.51    1.41
 -13  -5   6    3.97    0.86
 -13  -5   6    2.73    0.54
 -13  -5   6    4.20    0.89
  13   5  -6    4.13    0.93
  13   5  -6    4.27    0.63
 -13   5   6    3.48    0.62
 -13   5   6    4.49    0.62
 -13   5   6    3.86    0.91
 -11  -5   6   23.11    1.25
 -11  -5   6   23.19    1.63
 -11  -5   6   24.50    1.59
  11   5  -6   23.10    1.15
 -11   5   6   25.76    1.24
  11   5  -6   24.47    1.58
 -11   5   6   24.37    1.71
 -11   5   6   26.19    1.06
  -9  -5   6   18.60    1.33
  -9  -5   6   17.75    0.98
  -9  -5   6   16.92    1.21
  -9   5   6   18.39    1.33
   9   5  -6   18.59    1.23
   9   5  -6   16.49    0.92
  -9   5   6   18.25    0.75
  -9   5   6   17.57    0.86
  -7  -5   6   24.96    1.37
  -7  -5   6   25.13    1.14
  -7  -5   6   26.94    1.50
  -7  -5   6   23.85    1.35
   7   5  -6   22.81    1.08
  -7   5   6   26.79    0.84
  -7   5   6   25.12    0.87
   7   5  -6   26.52    1.37
  -7   5   6   24.44    1.39
  -7   5   6   24.40    0.93
   5  -5  -6   26.87    1.06
  -5  -5   6   26.79    1.44
  -5  -5   6   26.46    1.16
  -5   5   6   26.91    0.94
  -5   5   6   27.15    1.36
   5   5  -6   28.81    1.16
   5   5  -6   27.35    1.36
   3  -5  -6    0.37    0.12
  -3  -5   6    0.12    0.29
   3  -5  -6    0.22    0.14
  -3  -5   6    0.07    0.30
  -3  -5   6    0.42    0.25
   3   5  -6    0.30    0.17
   3   5  -6    0.49    0.11
   3   5  -6    0.30    0.27
  -3   5   6    0.25    0.23
  -3   5   6    0.49    0.14
  -3   5   6    0.49    0.11
  -3   5   6    0.37    0.16
  -3   5   6    0.35    0.23
  -1  -5   6   23.32    1.19
  -1  -5   6   23.88    1.09
  -1  -5   6   22.71    0.88
   1  -5  -6   24.27    1.07
   1  -5  -6   23.04    0.87
  -1  -5   6   24.03    1.32
   1   5  -6   22.42    1.17
  -1   5   6   24.05    0.87
  -1   5   6   25.18    0.88
   1   5  -6   24.02    1.02
   1   5  -6   24.97    0.86
  -1   5   6   23.93    0.97
  -1   5   6   23.75    0.97
  -1   5   6   24.03    1.09
  -1  -5  -6    3.12    0.31
   1  -5   6    3.74    0.45
  -1  -5  -6    3.53    0.36
  -1  -5  -6    3.24    0.25
   1  -5   6    3.44    0.25
   1  -5   6    3.40    0.52
  -1  -5  -6    3.68    0.54
  -1   5  -6    3.46    0.52
   1   5   6    3.41    0.24
  -1   5  -6    3.89    0.38
   1   5   6    3.21    0.34
   1   5   6    2.69    0.41
   1   5   6    2.81    0.43
   3  -5   6   38.95    1.59
  -3  -5  -6   39.09    1.32
  -3  -5  -6   37.85    1.43
   3  -5   6   40.42    1.74
  -3  -5  -6   39.34    1.36
   3  -5   6   40.41    1.35
  -3  -5  -6   41.18    1.54
   3   5   6   37.73    1.59
  -3   5  -6   39.06    1.51
   3   5   6   42.21    1.69
  -3   5  -6   39.26    1.73
  -5  -5  -6    6.67    0.66
  -5  -5  -6    5.81    0.45
   5  -5   6    5.93    0.61
  -5  -5  -6    5.56    0.35
  -5  -5  -6    5.76    0.43
   5  -5   6    5.03    0.34
  -5   5  -6    5.68    0.48
  -5   5  -6    5.04    0.70
   5   5   6    5.55    0.75
  -5   5  -6    5.44    0.40
   5   5   6    5.02    0.54
  -7  -5  -6   26.25    1.13
   7  -5   6   24.71    1.02
  -7  -5  -6   26.09    1.41
  -7  -5  -6   28.08    1.05
   7  -5   6   26.74    1.29
  -7  -5  -6   25.43    1.11
   7   5   6   27.60    1.57
  -7   5  -6   24.37    1.16
   7   5   6   27.47    1.30
  -7   5  -6   26.34    1.44
  -9  -5  -6    0.15    0.18
  -9  -5  -6    0.25    0.53
  -9  -5  -6    0.54    0.26
   9  -5   6    0.05    0.29
  -9  -5  -6    0.81    0.45
  -9   5  -6    0.28    0.21
   9   5   6   -0.07    0.28
  -9   5  -6    0.73    0.44
 -11  -5  -6   12.89    0.90
 -11  -5  -6   14.24    1.45
  11  -5   6   14.79    1.08
 -11  -5  -6   13.76    0.81
 -11   5  -6   13.93    1.28
 -11   5  -6   14.53    0.92
  11   5   6   13.87    1.03
 -13  -5  -6    0.67    0.83
 -13  -5  -6   -0.06    0.35
 -13  -5  -6   -0.07    0.25
  13  -5   6    0.37    0.49
  13   5   6    0.42    0.47
 -13   5  -6    0.12    0.34
 -13   5  -6    0.15    0.57
 -15  -5  -6    1.26    1.17
 -15  -5  -6    0.82    0.83
 -15  -5  -6    0.35    0.48
 -15  -5  -6    0.45    0.36
 -15   5  -6    0.62    0.46
 -15   5  -6   -0.25    0.79
 -17  -5  -6    2.66    0.55
 -17  -5  -6    2.74    0.69
 -17  -5  -6    1.09    1.44
 -17   5  -6    2.61    0.67
 -17   5  -6    1.81    1.13
 -19  -5  -6    4.35    0.75
 -19  -5  -6    3.99    0.87
 -19   5  -6    2.82    0.80
 -19   5  -6    4.29    1.43
 -21  -5  -6    1.42    0.74
 -21   5  -6    1.13    0.95
 -20  -6   6    2.11    1.62
 -20  -6   6    3.77    1.78
 -20  -6   6    4.38    1.01
 -20   6   6    2.57    1.71
  20   6  -6    3.93    0.91
 -20   6   6    3.86    1.13
 -18  -6   6   19.95    2.39
 -18  -6   6   15.11    1.54
 -18  -6   6   15.33    2.40
  18   6  -6   18.61    1.40
 -18   6   6   18.17    1.66
 -18   6   6   16.34    2.41
 -16  -6   6    5.21    1.26
 -16  -6   6    4.32    0.76
 -16  -6   6    6.14    1.30
 -16   6   6    7.07    1.61
  16   6  -6    6.22    0.90
 -16   6   6    5.63    0.95
 -14  -6   6    6.20    1.12
 -14  -6   6    6.27    1.10
 -14  -6   6    7.65    0.88
  14   6  -6    7.44    0.82
  14   6  -6    6.25    1.26
 -14   6   6    7.32    1.13
 -14   6   6    6.64    1.30
 -12  -6   6    0.33    0.64
 -12  -6   6    0.31    0.34
 -12  -6   6    0.47    0.60
 -12   6   6    0.38    0.30
 -12   6   6   -0.35    0.56
  12   6  -6    0.08    0.32
  12   6  -6   -0.11    0.72
 -12   6   6    0.45    0.36
 -10  -6   6   10.86    0.81
 -10  -6   6   12.13    1.16
 -10  -6   6   11.84    1.19
  10   6  -6   10.37    1.17
 -10   6   6   11.57    0.59
 -10   6   6    9.84    1.13
  10   6  -6   10.48    0.76
 -10   6   6   10.08    0.68
  -8  -6   6    1.31    0.46
  -8  -6   6    1.90    0.53
  -8  -6   6    0.89    0.28
   8   6  -6    1.31    0.29
   8   6  -6    1.37    0.52
  -8   6   6    1.36    0.23
  -8   6   6    1.64    0.19
  -8   6   6    1.67    0.51
   6  -6  -6    7.27    0.49
  -6  -6   6    6.99    0.58
   6  -6  -6    7.11    0.50
  -6  -6   6    8.25    0.85
  -6   6   6    7.49    1.10
   6   6  -6    7.54    0.58
   6   6  -6    6.61    0.80
   4  -6  -6   11.19    0.60
   4  -6  -6   11.67    0.61
  -4  -6   6   12.37    0.96
  -4  -6   6   12.00    0.81
  -4   6   6   11.45    0.75
  -4   6   6   12.80    0.83
   4   6  -6   13.34    0.49
   4   6  -6   13.28    0.93
  -2  -6   6    5.66    0.39
   2  -6  -6    5.86    0.41
  -2  -6   6    5.25    0.68
   2  -6  -6    5.53    0.37
  -2  -6   6    5.92    0.53
  -2   6   6    5.36    0.32
   2   6  -6    6.63    0.69
   2   6  -6    5.51    0.34
  -2   6   6    4.81    0.45
  -2   6   6    5.50    0.51
   2   6  -6    5.11    0.45
  -2   6   6    4.27    0.38
  -2   6   6    5.67    0.41
   0  -6  -6   28.34    1.04
   0  -6   6   28.35    1.43
   0  -6   6   29.13    1.24
   0  -6   6   28.10    1.05
   0  -6  -6   29.32    1.12
   0   6  -6   28.63    1.05
   0   6  -6   27.98    1.19
   0   6   6   28.76    1.24
   0   6  -6   29.12    1.40
   0   6   6   29.22    1.07
   0   6   6   28.63    0.99
   0   6   6   27.22    1.19
  -2  -6  -6    0.47    0.24
  -2  -6  -6    0.31    0.10
   2  -6   6    0.23    0.13
   2  -6   6    0.20    0.26
  -2  -6  -6    0.29    0.13
  -2  -6  -6    0.34    0.15
   2  -6   6    0.15    0.23
  -2   6  -6    0.44    0.17
  -2   6  -6    0.26    0.31
   2   6   6    0.48    0.26
  -2   6  -6    0.23    0.35
   2   6   6    0.08    0.28
   4  -6   6   22.24    0.89
  -4  -6  -6   22.75    0.98
  -4  -6  -6   22.79    0.91
  -4  -6  -6   22.41    0.88
  -4  -6  -6   24.03    1.14
   4  -6   6   22.14    1.24
  -4   6  -6   24.10    1.30
  -4   6  -6   22.73    1.05
   4   6   6   24.73    1.29
   4   6   6   22.40    1.11
  -6  -6  -6   11.32    0.58
  -6  -6  -6   12.04    0.67
   6  -6   6   10.59    0.57
  -6  -6  -6   11.19    0.65
  -6  -6  -6   11.17    0.91
   6  -6   6   12.17    0.83
   6   6   6   10.85    0.78
   6   6   6   14.23    1.08
  -6   6  -6   11.43    0.71
  -6   6  -6   10.66    0.92
   8  -6   6    6.03    0.46
  -8  -6  -6    6.01    0.82
  -8  -6  -6    6.55    0.52
   8  -6   6    6.03    0.69
  -8  -6  -6    6.49    0.57
   8   6   6    8.10    1.06
   8   6   6    7.50    0.68
  -8   6  -6    6.13    0.85
  -8   6  -6    6.82    0.59
 -10  -6  -6   12.29    0.74
  10  -6   6   10.97    0.92
 -10  -6  -6   10.73    1.25
 -10  -6  -6   11.60    0.82
 -10  -6  -6   11.71    0.81
  10   6   6   11.49    0.93
 -10   6  -6   11.64    0.82
 -10   6  -6   11.58    1.13
 -12  -6  -6   -0.05    0.27
 -12  -6  -6    0.24    0.34
 -12  -6  -6    0.20    0.56
  12  -6   6    0.27    0.44
 -12   6  -6   -0.38    0.55
 -12   6  -6   -0.35    0.30
  12   6   6    0.40    0.40
 -14  -6  -6    0.83    0.40
 -14  -6  -6    1.52    1.09
 -14  -6  -6    2.50    0.56
  14  -6   6    1.27    0.59
 -14  -6  -6    0.90    0.73
  14   6   6    0.90    0.54
 -14   6  -6    1.99    0.85
 -14   6  -6    1.58    0.47
 -16  -6  -6   27.66    3.87
 -16  -6  -6   26.27    1.44
 -16  -6  -6   27.91    1.67
 -16   6  -6   26.15    2.29
 -16   6  -6   29.88    1.70
 -18  -6  -6    1.85    0.57
 -18  -6  -6    3.47    0.81
 -18   6  -6    2.47    1.30
 -18   6  -6    3.19    0.80
 -20  -6  -6   14.64    1.39
 -20  -6  -6   11.53    1.70
 -20   6  -6   10.73    1.85
 -20   6  -6   12.95    1.61
 -21  -7   6    7.67    1.28
 -21  -7   6    8.59    2.22
 -21  -7   6    5.42    2.15
 -21   7   6    8.16    2.24
  21   7  -6    7.61    1.15
 -21   7   6    9.50    1.46
 -19  -7   6   26.21    2.99
 -19  -7   6   26.03    1.95
 -19  -7   6   22.89    2.96
 -19   7   6   24.93    3.14
  19   7  -6   23.19    1.71
 -19   7   6   24.78    2.02
 -17  -7   6    3.23    1.22
 -17  -7   6    2.95    1.31
 -17  -7   6    3.78    0.82
 -17   7   6    2.52    0.81
  17   7  -6    2.84    0.69
 -17   7   6    4.16    1.28
 -15  -7   6   22.89    2.13
 -15  -7   6   25.55    2.19
 -15  -7   6   22.52    1.50
 -15   7   6   22.73    1.49
 -15   7   6   23.85    2.24
  15   7  -6   24.48    1.43
 -13  -7   6   41.76    2.40
 -13  -7   6   41.09    1.88
 -13  -7   6   40.90    2.37
 -13   7   6   35.54    2.39
 -13   7   6   36.68    1.72
 -13   7   6   39.66    1.58
  13   7  -6   40.73    2.53
  13   7  -6   38.61    1.79
 -11  -7   6   45.10    1.97
 -11  -7   6   47.21    2.43
 -11  -7   6   46.65    2.36
 -11   7   6   42.37    1.74
 -11   7   6   46.17    1.62
  11   7  -6   44.78    1.91
  -9  -7   6   -0.13    0.51
  -9  -7   6    0.18    0.26
  -9  -7   6    0.14    0.47
  -9   7   6    0.25    0.18
  -9   7   6    0.61    0.23
   9   7  -6    0.86    0.30
  -7  -7   6   91.60    3.60
  -7  -7   6   91.64    3.23
   7  -7  -6   91.35    3.08
   7  -7  -6   92.75    3.08
   7   7  -6   94.66    3.22
   7   7  -6   91.18    3.56
   5  -7  -6   33.23    1.32
   5  -7  -6   34.49    1.34
  -5  -7   6   33.83    1.74
  -5   7   6   32.89    1.61
   5   7  -6   32.61    1.91
   5   7  -6   36.49    1.47
   5   7  -6   36.81    1.16
   3  -7  -6    2.94    0.34
  -3  -7   6    2.81    0.43
   3  -7  -6    3.19    0.35
  -3  -7   6    3.18    0.33
  -3  -7   6    2.35    0.51
  -3   7   6    3.21    0.27
  -3   7   6    3.17    0.42
   3   7  -6    2.53    0.38
   3   7  -6    3.56    0.32
  -3   7   6    2.57    0.31
  -3   7   6    3.20    0.43
  -1  -7   6   57.95    2.14
   1  -7  -6   58.12    2.04
  -1  -7   6   57.72    2.00
  -1  -7   6   59.07    2.42
  -1   7   6   61.02    1.95
  -1   7   6   58.54    2.09
  -1   7   6   58.06    2.13
   1   7  -6   59.95    2.16
   1   7  -6   59.86    1.94
  -1   7   6   59.00    1.97
   1   7  -6   60.51    2.40
   1  -7   6    9.03    0.63
  -1  -7  -6    8.21    0.47
   1  -7   6    7.70    0.53
  -1  -7  -6    8.08    0.52
   1  -7   6    8.25    0.81
   1   7   6    7.91    0.61
  -1   7  -6    8.97    0.59
  -1   7  -6    9.17    0.81
   1   7   6    7.99    0.68
  -3  -7  -6  111.54    3.57
  -3  -7  -6  114.15    3.68
  -3  -7  -6  115.52    3.48
   3  -7   6  111.65    3.77
  -3  -7  -6  120.38    3.70
   3  -7   6  113.29    3.63
   3  -7   6  112.95    4.04
   3   7   6  116.74    3.96
  -3   7  -6  112.97    4.02
   3   7   6  103.22    3.79
  -3   7  -6  113.20    3.77
  -5  -7  -6   34.41    1.30
  -5  -7  -6   37.25    1.58
   5  -7   6   34.64    1.29
  -5  -7  -6   32.92    1.28
   5  -7   6   33.44    1.49
  -5  -7  -6   33.27    1.36
   5   7   6   37.71    1.78
  -5   7  -6   34.27    1.70
  -5   7  -6   35.54    1.45
   5   7   6   33.87    1.50
  -7  -7  -6    9.03    0.61
  -7  -7  -6    8.97    0.62
   7  -7   6    8.82    0.78
   7  -7   6    7.92    0.53
  -7  -7  -6    8.98    0.55
  -7  -7  -6    8.37    0.94
  -7   7  -6    8.00    0.89
   7   7   6    8.85    1.19
   7   7   6    7.14    0.70
  -7   7  -6    8.43    0.65
  -9  -7  -6   58.51    2.21
  -9  -7  -6   60.41    2.62
   9  -7   6   57.96    2.34
  -9  -7  -6   59.33    2.19
  -9   7  -6   58.65    2.61
  -9   7  -6   59.23    2.27
   9   7   6   58.96    2.36
 -11  -7  -6   63.06    2.46
 -11  -7  -6   64.58    2.39
  11  -7   6   64.10    2.58
 -11  -7  -6   64.66    2.22
 -11  -7  -6   61.74    2.95
 -11   7  -6   66.97    2.92
 -11   7  -6   64.11    2.50
  11   7   6   63.75    2.60
 -13  -7  -6    1.46    1.15
  13  -7   6    1.21    0.56
 -13  -7  -6    1.48    0.37
 -13  -7  -6    1.66    0.49
 -13   7  -6    0.55    0.63
 -13   7  -6    0.80    0.41
  13   7   6    1.99    0.52
 -15  -7  -6    1.81    0.61
 -15  -7  -6    1.22    0.46
 -15   7  -6    1.87    1.84
 -15   7  -6    1.36    0.54
 -17  -7  -6    0.13    0.49
 -17  -7  -6   -0.09    0.62
 -17   7  -6    1.20    1.08
 -17   7  -6    0.28    0.63
 -19  -7  -6   18.43    1.46
 -19  -7  -6   16.69    1.71
 -19   7  -6   16.12    1.68
 -19   7  -6   17.61    2.57
 -20  -8   6    3.97    1.84
 -20  -8   6    1.38    0.94
 -20  -8   6    3.63    2.02
 -20   8   6    1.35    1.78
 -20   8   6    2.18    1.06
  20   8  -6    1.30    0.93
 -18  -8   6   53.57    2.74
 -18  -8   6   57.82    3.69
 -18  -8   6   64.04    3.83
  18   8  -6   55.57    2.56
 -18   8   6   52.60    2.69
 -18   8   6   56.72    3.87
 -16  -8   6  120.02    5.12
 -16  -8   6  114.35    5.04
 -16  -8   6  112.45    4.33
 -16   8   6  107.82    4.18
 -16   8   6  109.34    5.19
  16   8  -6  122.62    4.23
 -14  -8   6    0.45    0.84
 -14  -8   6    0.18    0.47
 -14  -8   6   -0.20    0.85
 -14   8   6    1.46    0.52
  14   8  -6    2.12    1.25
 -14   8   6    0.64    0.89
  14   8  -6    0.04    0.46
 -12  -8   6   42.54    1.97
 -12  -8   6   43.86    2.45
 -12  -8   6   45.38    2.47
  12   8  -6   42.19    1.92
  12   8  -6   46.01    2.54
 -12   8   6   39.88    1.72
 -10  -8   6  131.12    4.95
 -10  -8   6  126.83    4.51
 -10  -8   6  137.19    4.95
 -10   8   6  139.62    4.06
  10   8  -6  132.30    4.91
  10   8  -6  130.57    4.48
 -10   8   6  118.54    4.12
  -8  -8   6   34.57    1.92
   8  -8  -6   34.07    1.42
  -8  -8   6   33.32    1.54
   8   8  -6   34.85    1.93
   8   8  -6   33.71    1.53
  -6  -8   6    0.23    0.45
   6  -8  -6    0.35    0.21
   6  -8  -6    0.47    0.22
   6   8  -6    0.14    0.48
   6   8  -6    0.27    0.26
  -6   8   6    0.39    0.32
  -4  -8   6    1.75    0.49
  -4  -8   6    1.74    0.29
   4  -8  -6    1.99    0.31
   4  -8  -6    1.39    0.24
  -4  -8   6    1.54    0.48
  -4   8   6    0.70    0.29
   4   8  -6    1.87    0.26
   4   8  -6    1.87    0.35
  -4   8   6    1.38    0.38
   4   8  -6    0.92    0.45
  -2  -8   6   91.86    2.96
  -2  -8   6   90.63    3.07
   2  -8  -6   90.12    2.94
  -2  -8   6   90.72    3.40
   2  -8  -6   88.77    2.98
   2   8  -6   86.50    2.84
  -2   8   6   92.25    2.83
   2   8  -6   87.30    3.10
  -2   8   6   87.12    3.03
  -2   8   6   87.70    2.97
  -2   8   6   87.96    2.96
   2   8  -6   92.88    3.39
   0  -8   6  272.49    8.35
   0  -8  -6  268.85    8.33
   0  -8   6  274.14    8.45
   0  -8  -6  272.08    8.40
   0  -8   6  269.94    8.83
   0   8  -6  277.54    8.79
   0   8  -6  274.92    8.52
   0   8   6  272.44    8.46
   0   8   6  276.54    8.54
  -2  -8  -6   29.38    1.06
  -2  -8  -6   28.81    1.13
   2  -8   6   28.86    1.13
  -2  -8  -6   27.74    1.19
   2  -8   6   29.06    1.26
   2  -8   6   28.99    1.53
   2   8   6   27.19    1.24
  -2   8  -6   29.53    1.51
  -2   8  -6   29.13    1.28
   2   8   6   30.19    1.43
  -4  -8  -6   61.75    2.03
  -4  -8  -6   65.40    2.25
   4  -8   6   63.05    2.15
  -4  -8  -6   66.50    2.31
  -4  -8  -6   61.06    2.13
  -4   8  -6   63.54    2.58
   4   8   6   59.98    2.30
  -4   8  -6   61.70    2.30
   6  -8   6  156.20    5.13
  -6  -8  -6  152.64    5.04
  -6  -8  -6  155.00    4.95
  -6  -8  -6  154.61    4.94
  -6  -8  -6  164.64    5.27
   6  -8   6  158.88    4.96
   6   8   6  150.99    5.15
  -6   8  -6  152.53    5.44
  -6   8  -6  162.17    5.16
   6   8   6  166.47    5.57
   8  -8   6   52.68    2.14
  -8  -8  -6   51.66    1.92
   8  -8   6   54.74    1.95
  -8  -8  -6   54.16    2.01
  -8  -8  -6   54.03    2.03
  -8  -8  -6   55.14    2.40
   8   8   6   53.65    2.17
  -8   8  -6   51.95    2.43
  -8   8  -6   54.63    2.12
 -10  -8  -6    8.71    0.68
  10  -8   6   10.11    0.92
 -10  -8  -6    9.30    0.80
 -10  -8  -6    9.17    0.71
 -10  -8  -6    8.89    1.18
 -10   8  -6    9.00    0.78
 -10   8  -6    9.13    1.12
  10   8   6    8.26    0.87
 -12  -8  -6    8.97    0.76
 -12  -8  -6    8.02    0.88
  12  -8   6   10.57    1.04
  12   8   6    8.20    0.93
 -12   8  -6    8.76    0.86
 -12   8  -6    7.25    1.08
 -14  -8  -6   34.80    1.78
 -14   8  -6   32.57    1.70
 -14   8  -6   30.12    3.18
 -16  -8  -6   68.00    2.91
 -16  -8  -6   67.84    2.72
 -16   8  -6   65.88    2.88
 -16   8  -6   72.18    3.58
 -18  -8  -6   28.30    1.71
 -18  -8  -6   26.03    1.96
 -18   8  -6   29.89    2.73
 -18   8  -6   32.45    2.02
 -19  -9   6    8.81    1.20
 -19  -9   6    9.99    2.13
 -19  -9   6    8.83    2.28
 -19   9   6    6.26    1.87
 -19   9   6    7.03    1.14
  19   9  -6    8.16    1.15
 -17  -9   6    0.18    0.75
 -17  -9   6    1.86    1.59
 -17  -9   6    0.11    1.34
 -17   9   6    1.44    1.37
  17   9  -6    3.25    0.73
 -17   9   6    0.47    0.76
 -15  -9   6   15.63    2.26
 -15  -9   6   13.40    1.29
 -15  -9   6   17.40    2.33
  15   9  -6   15.83    1.31
 -15   9   6   14.74    2.13
 -15   9   6   13.27    1.54
 -13  -9   6  152.17    5.73
 -13  -9   6  144.19    5.10
 -13  -9   6  146.74    5.82
 -13   9   6  135.12    4.75
  13   9  -6  150.29    5.72
  13   9  -6  144.36    5.05
 -11  -9   6  108.38    4.34
 -11  -9   6  107.96    4.34
 -11  -9   6  109.76    3.90
  11   9  -6  109.64    3.87
  11   9  -6  109.84    4.37
 -11   9   6   95.50    3.44
  -9  -9   6    0.46    0.37
  -9  -9   6    0.52    0.63
   9   9  -6    0.58    0.33
   9   9  -6   -0.91    0.64
   7  -9  -6  105.65    3.52
  -7  -9   6  104.96    4.04
   7  -9  -6  103.83    3.54
   7   9  -6  103.53    3.67
   7   9  -6  106.28    4.06
  -7   9   6  103.21    3.60
  -5  -9   6  315.43    9.59
   5  -9  -6  321.18    9.60
   5  -9  -6  310.82    9.56
  -5  -9   6  320.95    9.69
  -5  -9   6  316.07   10.12
  -5   9   6  280.03    9.78
   5   9  -6  306.68    9.73
   5   9  -6  313.43    9.36
   5   9  -6  314.84   10.09
   3  -9  -6   86.82    2.89
  -3  -9   6   85.20    2.90
   3  -9  -6   86.03    2.93
  -3  -9   6   86.80    3.37
  -3  -9   6   86.67    2.98
  -3   9   6   88.36    2.73
   3   9  -6   87.66    3.36
  -3   9   6   85.17    2.93
   3   9  -6   83.91    3.04
  -3   9   6   82.51    2.84
  -3   9   6   86.97    2.99
  -1  -9   6   12.35    1.44
  -1  -9   6   11.86    0.65
  -1  -9   6   11.81    0.75
   1  -9  -6   11.40    0.66
   1  -9  -6   11.38    0.69
  -1   9   6   11.87    0.54
  -1   9   6   12.29    0.54
   1   9  -6   11.10    1.02
  -1   9   6   11.04    0.79
  -1   9   6   11.78    0.71
   1   9  -6   10.77    0.74
   1  -9   6   89.47    3.39
   1  -9   6   89.95    2.96
  -1  -9  -6   88.09    2.94
   1  -9   6   88.08    3.00
  -1  -9  -6   87.88    3.01
  -1   9  -6   89.83    3.39
   1   9   6   87.14    3.01
  -1   9  -6   90.87    3.12
   1   9   6   89.32    3.23
   3  -9   6  190.84    5.86
  -3  -9  -6  186.67    5.78
  -3  -9  -6  186.90    5.93
  -3  -9  -6  184.06    5.82
   3  -9   6  188.11    5.92
   3  -9   6  190.08    6.35
   3   9   6  197.33    6.29
   3   9   6  177.55    5.93
  -3   9  -6  185.10    6.32
  -3   9  -6  183.55    6.01
  -5  -9  -6  133.14    4.34
   5  -9   6  134.18    4.26
  -5  -9  -6  127.98    4.23
  -5  -9  -6  139.66    4.44
   5  -9   6  133.01    4.36
  -5   9  -6  128.15    4.41
   5   9   6  127.96    4.37
   5   9   6  138.23    4.82
  -5   9  -6  129.38    4.72
  -7  -9  -6    0.74    0.30
  -7  -9  -6    0.66    0.25
  -7  -9  -6    0.44    0.68
  -7  -9  -6   -0.28    0.22
   7  -9   6    0.03    0.19
   7  -9   6   -0.10    0.35
  -7   9  -6   -0.31    0.43
  -7   9  -6    0.29    0.28
   7   9   6    0.10    0.33
  -9  -9  -6  121.21    4.01
   9  -9   6  120.13    4.18
   9  -9   6  124.62    4.04
  -9  -9  -6  123.25    4.08
  -9  -9  -6  121.75    4.10
  -9   9  -6  123.56    4.21
   9   9   6  119.65    4.23
  -9   9  -6  121.98    4.61
 -11  -9  -6   92.17    3.31
 -11  -9  -6   94.62    3.24
  11  -9   6   91.40    3.42
 -11  -9  -6   92.64    3.35
 -11   9  -6   95.88    3.88
 -11   9  -6   93.86    3.43
  11   9   6   94.68    3.48
 -13  -9  -6   79.62    3.50
 -13  -9  -6   96.52    3.41
 -13   9  -6   88.71    4.45
 -13   9  -6   95.20    3.45
 -15  -9  -6    3.23    0.65
 -15  -9  -6    3.86    0.77
 -15   9  -6    3.44    1.04
 -15   9  -6    2.92    0.71
 -17  -9  -6   40.08    2.25
 -17  -9  -6   41.54    2.04
 -17   9  -6   40.70    2.94
 -17   9  -6   43.88    2.30
 -19  -9  -6   40.04    2.44
 -19  -9  -6   38.29    2.10
 -19   9  -6   41.18    2.45
  19   9   6   39.23    2.35
 -19   9  -6   40.02    3.36
 -18 -10   6   43.78    2.46
 -18 -10   6   41.54    3.62
 -18 -10   6   48.67    4.02
 -18  10   6   39.51    3.65
  18  10  -6   42.72    2.35
 -18  10   6   40.67    2.23
 -16 -10   6   56.19    3.87
 -16 -10   6   62.12    2.84
 -16 -10   6   63.54    3.63
 -16  10   6   57.35    2.50
  16  10  -6   62.08    2.74
 -16  10   6   60.71    3.78
 -14 -10   6   16.61    2.10
 -14 -10   6   12.68    1.26
 -14 -10   6   17.43    2.28
  14  10  -6   16.48    2.26
  14  10  -6   14.91    1.27
 -14  10   6   12.87    1.03
 -12 -10   6   21.64    1.99
 -12 -10   6   24.50    2.14
 -12 -10   6   21.13    1.37
 -12  10   6   19.80    1.02
  12  10  -6   22.44    1.40
  12  10  -6   19.62    2.14
 -10 -10   6   93.72    3.92
  10  10  -6   90.91    3.97
  10  10  -6   94.11    3.47
   8 -10  -6   79.87    2.84
  -8 -10   6   78.21    3.38
   8  10  -6   79.55    3.01
  -8  10   6   77.85    2.88
   8  10  -6   79.98    3.43
   6 -10  -6  121.72    4.05
   6 -10  -6  121.07    4.08
  -6 -10   6  122.93    4.15
  -6 -10   6  121.24    4.58
  -6 -10   6  125.46    4.08
   6  10  -6  122.28    4.24
  -6  10   6  117.47    4.08
   6  10  -6  125.73    4.61
  -4 -10   6   48.65    1.89
  -4 -10   6   47.96    1.81
   4 -10  -6   46.02    1.79
  -4 -10   6   49.49    2.30
   4 -10  -6   49.20    1.85
  -4  10   6   46.06    1.79
  -4  10   6   47.19    1.96
   4  10  -6   48.16    2.30
  -4  10   6   45.89    1.59
  -4  10   6   44.73    1.71
   4  10  -6   46.89    1.94
  -2 -10   6  306.75    9.30
  -2 -10   6  309.81    9.28
   2 -10  -6  305.50    9.34
  -2 -10   6  301.90    9.80
   2 -10  -6  297.65    9.27
   2  10  -6  313.99    9.50
   2  10  -6  305.10    9.80
  -2  10   6  282.91    9.23
  -2  10   6  304.63    9.20
  -2  10   6  272.45    9.30
  -2  10   6  317.77    9.17
   0 -10   6  107.52    3.48
   0 -10  -6  105.04    3.54
   0 -10   6  108.71    3.50
   0 -10   6  104.29    3.93
   0 -10  -6  105.83    3.48
   0  10  -6  108.53    3.66
   0  10   6  103.89    3.70
   0  10  -6  108.77    3.97
   0  10   6   97.68    3.44
   2 -10   6   21.49    1.00
   2 -10   6   20.44    0.96
  -2 -10  -6   21.00    1.02
  -2 -10  -6   21.28    0.98
   2 -10   6   21.54    1.37
   2  10   6   22.03    1.35
   2  10   6   18.07    0.97
  -2  10  -6   20.70    1.35
  -2  10  -6   20.52    1.09
   4 -10   6   57.04    2.06
  -4 -10  -6   53.67    2.10
  -4 -10  -6   56.49    2.04
   4 -10   6   58.12    2.10
   4  10   6   58.07    2.59
   4  10   6   53.54    2.14
  -4  10  -6   58.20    2.53
  -4  10  -6   59.79    2.22
   6 -10   6  136.71    4.44
  -6 -10  -6  133.12    4.51
  -6 -10  -6  134.97    4.42
   6 -10   6  138.00    4.49
  -6 -10  -6  138.71    4.30
  -6  10  -6  137.87    4.62
  -6  10  -6  142.49    5.01
   6  10   6  132.43    4.52
   8 -10   6   46.73    1.91
  -8 -10  -6   45.59    1.86
  -8 -10  -6   46.27    1.85
   8 -10   6   48.53    1.81
  -8 -10  -6   46.37    1.78
  -8  10  -6   46.06    1.95
  -8  10  -6   45.19    2.31
   8  10   6   44.40    1.93
 -10 -10  -6   25.04    1.28
 -10 -10  -6   27.52    1.30
 -10 -10  -6   24.54    1.23
  10 -10   6   22.52    1.17
  10  10   6   25.24    1.39
 -10  10  -6   22.02    1.69
 -10  10  -6   25.43    1.36
 -12 -10  -6    1.08    0.51
 -12 -10  -6    0.12    0.44
 -12 -10  -6    0.84    0.65
 -12  10  -6   -0.65    0.43
 -14 -10  -6  153.63    4.99
 -14 -10  -6  142.20    4.99
 -14 -10  -6  147.87    5.11
 -14  10  -6  144.65    5.72
 -14  10  -6  146.03    5.17
 -16 -10  -6  113.64    4.23
 -16 -10  -6  111.06    4.04
 -16 -10  -6  111.42    4.05
 -16  10  -6  107.31    4.86
 -16  10  -6  114.90    4.30
 -18 -10  -6   -0.03    0.92
 -18 -10  -6   -0.51    0.86
 -18 -10  -6    1.05    0.78
  18  10   6    0.67    0.73
 -18  10  -6   -0.34    1.40
 -18  10  -6    0.34    0.90
 -17 -11   6   -0.75    0.76
 -17 -11   6   -1.34    2.65
 -17 -11   6    2.57    1.76
  17  11  -6    0.06    0.79
 -17  11   6   -0.37    0.74
 -17  11   6    2.47    1.63
 -15 -11   6   27.50    1.88
 -15 -11   6   33.37    3.44
 -15 -11   6   29.25    2.89
 -15  11   6   22.44    2.76
  15  11  -6   27.65    1.81
 -15  11   6   30.53    1.50
 -13 -11   6  111.49    4.73
 -13 -11   6  104.13    4.10
  13  11  -6  115.16    4.97
  13  11  -6  104.60    4.06
 -11 -11   6   71.66    3.39
  11  11  -6   74.84    3.64
  11  11  -6   71.61    3.17
  -9 -11   6    0.52    0.72
  -9 -11   6    0.63    0.36
   9 -11  -6    0.62    0.35
   9  11  -6   -0.14    0.81
  -9  11   6   -0.22    0.46
   9  11  -6   -0.65    0.36
  -7 -11   6   87.66    3.06
   7 -11  -6   83.41    2.97
  -7 -11   6   84.32    2.99
  -7 -11   6   82.11    3.50
   7  11  -6   80.38    3.68
  -7  11   6   80.62    2.92
   7  11  -6   80.09    3.12
  -5 -11   6  253.89    8.31
  -5 -11   6  249.18    7.77
   5 -11  -6  245.83    7.80
   5 -11  -6  251.89    7.76
  -5  11   6  242.47    7.66
  -5  11   6  256.92    7.42
   5  11  -6  244.06    7.94
   5  11  -6  250.80    8.36
  -5  11   6  224.04    7.54
  -5  11   6  248.17    7.47
   3 -11  -6   70.46    2.59
  -3 -11   6   75.52    2.58
  -3 -11   6   68.51    2.49
   3 -11  -6   69.90    2.53
  -3 -11   6   70.73    3.02
  -3  11   6   70.83    2.44
  -3  11   6   75.47    2.32
  -3  11   6   74.09    2.57
   3  11  -6   72.04    2.71
  -3  11   6   69.99    2.40
   3  11  -6   71.98    3.07
  -3  11   6   66.26    2.54
  -1 -11   6    7.97    0.61
  -1 -11   6    8.47    1.01
   1 -11  -6    8.95    0.67
  -1 -11   6    7.53    0.66
   1 -11  -6    8.14    0.65
   1  11  -6    7.52    0.71
  -1  11   6    8.10    0.87
   1  11  -6    7.64    1.05
  -1  11   6    7.44    0.56
   1 -11   6   67.72    2.85
   1 -11   6   68.43    2.37
   1 -11   6   65.48    2.26
  -1 -11  -6   65.35    2.41
  -1 -11  -6   63.34    2.33
  -1  11  -6   65.22    2.51
  -1  11  -6   66.43    2.83
   1  11   6   66.76    2.68
   1  11   6   64.09    2.26
  -3 -11  -6  134.14    4.36
   3 -11   6  133.34    4.27
  -3 -11  -6  136.77    4.46
   3 -11   6  135.99    4.39
  -3  11  -6  134.37    4.54
  -3  11  -6  132.97    4.89
   3  11   6  130.71    4.31
   5 -11   6  123.44    4.09
  -5 -11  -6  119.71    4.06
  -5 -11  -6  125.18    4.17
   5 -11   6  124.65    4.09
   5  11   6  126.67    4.10
  -5  11  -6  126.47    4.63
  -5  11  -6  120.51    4.24
   7 -11   6    0.57    0.30
  -7 -11  -6    0.01    0.32
   7 -11   6    0.41    0.45
  -7 -11  -6    0.30    0.30
  -7 -11  -6    0.00    0.26
  -7  11  -6    1.19    0.59
   7  11   6    0.02    0.39
  -7  11  -6   -0.15    0.32
   9 -11   6   73.97    2.71
  -9 -11  -6   73.09    2.77
  -9 -11  -6   76.81    2.68
  -9 -11  -6   76.00    2.72
  -9  11  -6   75.58    2.89
  -9  11  -6   72.59    3.29
 -11 -11  -6  138.35    4.60
 -11 -11  -6  141.07    4.63
 -11  11  -6  131.28    5.51
 -11  11  -6  136.31    4.78
 -13 -11  -6   44.59    1.97
 -13 -11  -6   43.68    2.33
 -13 -11  -6   35.97    2.27
 -13  11  -6   45.77    2.15
 -13  11  -6   40.19    2.55
 -15 -11  -6    1.73    0.80
 -15 -11  -6    0.10    0.60
 -15 -11  -6    1.97    0.75
 -15  11  -6    0.90    0.70
 -15  11  -6   -0.55    1.04
 -17 -11  -6   28.40    2.03
 -17 -11  -6   29.12    1.78
 -17 -11  -6   26.35    1.89
  17  11   6   27.76    1.86
 -17  11  -6   22.71    2.64
 -17  11  -6   26.21    2.01
 -16 -12   6   69.43    3.22
 -16 -12   6   67.47    4.19
  16  12  -6   70.31    3.16
 -16  12   6   69.34    4.34
 -14 -12   6    3.31    1.49
  14  12  -6    2.65    0.78
 -12 -12   6   62.39    3.40
  12  12  -6   63.88    2.83
  12  12  -6   71.64    3.79
 -10 -12   6   53.21    2.38
 -10 -12   6   51.12    2.81
  10 -12  -6   52.03    2.21
 -10 -12   6   46.72    2.46
  10  12  -6   49.11    2.98
  10  12  -6   45.19    2.48
 -10  12   6   54.27    2.25
  -8 -12   6   64.61    2.55
  -8 -12   6   62.22    2.44
   8 -12  -6   63.61    2.45
  -8 -12   6   64.53    3.04
   8  12  -6   62.40    3.14
  -8  12   6   62.90    2.39
   8  12  -6   59.52    2.59
  -6 -12   6    2.73    0.52
  -6 -12   6    2.69    0.83
  -6 -12   6    2.14    0.74
   6 -12  -6    2.38    0.48
   6 -12  -6    2.19    0.49
  -6  12   6    2.44    0.44
   6  12  -6    1.95    0.48
   6  12  -6    2.74    0.84
  -4 -12   6    2.79    0.46
  -4 -12   6    2.02    0.71
   4 -12  -6    1.94    0.40
   4 -12  -6    2.52    0.45
  -4 -12   6    2.63    0.51
  -4  12   6    2.35    0.36
  -4  12   6    1.98    0.50
  -4  12   6    2.88    0.60
   4  12  -6    2.76    0.50
   4  12  -6    4.39    0.91
  -4  12   6    2.42    0.33
  -2 -12   6   85.03    2.95
   2 -12  -6   83.70    3.00
  -2 -12   6   86.24    2.75
  -2 -12   6   81.44    3.39
   2 -12  -6   82.50    2.93
   2  12  -6   82.39    3.47
   2  12  -6   85.70    3.14
  -2  12   6   85.57    2.74
  -2  12   6   82.32    2.86
  -2  12   6   80.75    3.04
  -2  12   6   82.45    2.69
   0 -12  -6  158.89    5.15
   0 -12  -6  152.06    5.05
   0 -12   6  158.20    5.08
   0 -12   6  159.53    4.81
   0 -12   6  155.70    5.57
   0  12   6  152.98    5.10
   0  12  -6  158.07    5.25
   0  12   6  157.24    4.82
   0  12   6  153.25    5.32
   0  12  -6  152.78    5.60
  -2 -12  -6   23.84    1.19
   2 -12   6   26.15    1.03
  -2 -12  -6   23.88    1.23
   2 -12   6   26.22    1.20
  -2  12  -6   27.44    1.35
  -2  12  -6   23.72    1.63
   2  12   6   25.05    1.04
   4 -12   6   19.97    0.95
   4 -12   6   20.02    1.03
  -4 -12  -6   17.61    1.02
  -4 -12  -6   19.87    1.09
  -4  12  -6   18.96    1.14
  -4  12  -6   20.69    1.51
   4  12   6   18.98    0.97
  -6 -12  -6  126.76    4.34
  -6 -12  -6  127.81    4.27
   6 -12   6  131.76    4.30
  -6  12  -6  128.70    4.86
  -6  12  -6  126.54    4.44
   8 -12   6   80.91    2.89
  -8 -12  -6   80.15    2.89
  -8 -12  -6   77.18    2.94
  -8  12  -6   84.05    3.54
  -8  12  -6   79.52    3.04
 -10 -12  -6   10.98    0.94
  10 -12   6   11.30    0.92
 -10 -12  -6   13.35    1.08
 -10 -12  -6   10.90    0.98
 -10  12  -6   12.96    1.53
 -10  12  -6   10.43    1.04
 -12 -12  -6   12.82    1.10
 -12 -12  -6   13.12    1.40
 -12 -12  -6   14.47    1.30
 -12  12  -6   12.13    1.65
 -12  12  -6   11.09    1.23
 -14 -12  -6   37.81    1.95
 -14 -12  -6   38.73    1.90
 -14 -12  -6   38.01    2.07
 -14  12  -6   35.85    2.64
  14  12   6   34.05    2.01
 -14  12  -6   35.52    2.07
 -16 -12  -6   44.10    2.48
 -16 -12  -6   41.89    2.33
 -16 -12  -6   45.65    2.19
 -16  12  -6   43.62    3.12
 -16  12  -6   47.10    2.50
  16  12   6   43.41    2.32
 -15 -13   6   28.61    1.76
 -15 -13   6   27.44    3.19
  15  13  -6   27.24    1.96
 -15  13   6   26.57    3.19
 -13 -13   6   20.41    2.61
 -13 -13   6   20.93    1.44
  13  13  -6   22.60    3.76
  13  13  -6   21.31    1.67
 -11 -13   6   27.91    1.59
 -11 -13   6   29.45    2.53
  11  13  -6   32.77    2.78
  11  13  -6   28.96    1.77
  -9 -13   6    0.43    0.40
  -9 -13   6    0.46    0.93
   9 -13  -6    0.28    0.44
   9  13  -6   -0.44    1.30
   9  13  -6    0.63    0.49
   7 -13  -6   66.33    2.55
  -7 -13   6   67.74    3.14
  -7 -13   6   63.23    2.52
   7  13  -6   67.12    2.76
   7  13  -6   60.99    3.20
   5 -13  -6   13.94    1.03
   5 -13  -6   14.19    1.00
  -5 -13   6   14.38    1.54
  -5 -13   6   14.78    0.99
   5  13  -6   16.09    1.16
  -5  13   6   16.04    1.29
  -5  13   6   12.69    0.98
  -5  13   6   15.30    0.77
   5  13  -6   16.04    1.63
   3 -13  -6   17.71    1.06
   3 -13  -6   17.58    1.10
  -3 -13   6   17.98    1.06
  -3 -13   6   19.68    1.55
   3  13  -6   18.41    1.20
  -3  13   6   18.63    0.95
   3  13  -6   17.77    1.67
  -1 -13   6    3.48    0.82
   1 -13  -6    3.07    0.51
   1 -13  -6    2.36    0.46
  -1 -13   6    2.93    0.48
   1  13  -6    2.90    0.76
  -1  13   6    3.79    0.78
   1  13  -6    3.24    0.55
  -1  13   6    2.85    0.50
  -1 -13  -6   25.77    1.25
  -1 -13  -6   22.90    1.25
   1 -13   6   26.39    1.25
   1  13   6   21.54    1.28
  -1  13  -6   26.55    1.80
  -1  13  -6   26.38    1.40
   1  13   6   25.51    1.18
   3 -13   6   31.49    1.48
  -3 -13  -6   34.21    1.52
  -3 -13  -6   33.46    1.55
   3  13   6   32.55    1.67
   3  13   6   35.14    1.49
  -3  13  -6   34.86    1.65
  -3  13  -6   34.09    2.05
   5 -13   6   39.67    1.73
  -5 -13  -6   42.11    1.82
  -5 -13  -6   42.07    1.75
  -5  13  -6   40.27    2.31
  -5  13  -6   42.78    1.91
  -7 -13  -6    8.27    0.83
   7 -13   6    7.93    0.79
  -7  13  -6    6.15    1.51
  -7  13  -6    9.48    0.93
   9 -13   6   40.67    2.00
  -9 -13  -6   41.60    1.87
  -9 -13  -6   42.18    1.91
  -9  13  -6   40.67    2.44
  -9  13  -6   43.74    2.04
  11 -13   6   77.98    2.99
 -11 -13  -6   85.43    3.08
 -11 -13  -6   80.64    3.05
 -11 -13  -6   75.17    3.02
 -11  13  -6   73.27    3.62
  11  13   6   77.87    3.15
 -11  13  -6   82.20    3.22
 -13 -13  -6    1.79    0.63
 -13 -13  -6    0.75    0.72
 -13 -13  -6    0.39    0.84
 -13  13  -6    0.42    0.73
  13  13   6    1.15    0.66
 -13  13  -6    0.74    0.96
 -15 -13  -6    0.70    0.70
 -15 -13  -6    0.11    0.81
  15  13   6    0.17    0.73
  15  13   6    1.49    1.33
 -15  13  -6   -0.48    0.85
 -15  13  -6   -0.50    1.23
 -14 -14   6   -0.47    0.65
 -14  14   6    1.71    1.67
  14  14  -6   -0.30    0.76
 -12 -14   6    1.18    0.57
 -12 -14   6   -0.58    1.41
  12  14  -6   -0.44    0.68
  12  14  -6    1.12    1.55
 -10 -14   6   10.97    1.06
  10 -14  -6    8.28    1.06
  10  14  -6    7.10    1.01
  -8 -14   6   30.16    2.35
   8 -14  -6   27.76    1.56
  -8 -14   6   29.18    1.55
   8  14  -6   28.55    2.43
   8  14  -6   29.48    1.75
  -6 -14   6    4.27    1.07
  -6 -14   6    4.26    0.88
  -6  14   6    3.87    0.59
   6  14  -6    3.86    1.01
  -6  14   6    4.40    0.56
   6  14  -6    3.82    0.68
  -4 -14   6    7.96    0.81
   4 -14  -6    7.77    0.85
  -4 -14   6    7.10    1.13
  -4  14   6    7.10    0.68
   4  14  -6    7.08    0.96
   4  14  -6    8.91    1.33
   2 -14  -6   11.90    0.95
   2 -14  -6   12.58    1.00
  -2 -14   6   13.24    1.49
  -2 -14   6   11.46    0.90
  -2  14   6   10.22    0.85
   2  14  -6   11.82    1.07
   2  14  -6   11.54    1.54
   0 -14  -6   39.11    1.76
   0 -14  -6   37.23    1.70
   0 -14   6   37.34    1.69
   0  14  -6   36.54    2.29
   0  14   6   40.90    1.59
   0  14  -6   39.85    1.85
   0  14   6   34.63    1.70
  -2 -14  -6    1.03    0.51
  -2 -14  -6    0.38    0.40
   2 -14   6    0.71    0.38
   2  14   6    1.18    0.40
  -2  14  -6    1.12    0.44
   2  14   6    0.58    0.48
  -2  14  -6    1.27    0.71
  -4 -14  -6    5.90    0.80
  -4 -14  -6    7.67    0.90
   4 -14   6    6.11    0.75
  -4  14  -6    7.43    0.90
   4  14   6    6.42    0.80
   4  14   6    5.15    0.81
  -4  14  -6    5.55    1.52
  -6 -14  -6    0.38    0.41
  -6 -14  -6   -0.02    0.45
   6 -14   6    0.75    0.42
   6  14   6    0.52    0.46
   6  14   6    1.37    0.61
  -6  14  -6   -0.01    0.49
  -6  14  -6    1.47    0.79
   8 -14   6   35.64    1.62
  -8 -14  -6   30.82    1.63
  -8 -14  -6   30.25    1.78
   8  14   6   32.30    1.68
  -8  14  -6   32.24    2.19
   8  14   6   30.27    2.00
  -8  14  -6   27.26    2.13
 -10 -14  -6    9.52    1.06
  10 -14   6    8.00    1.01
 -10 -14  -6    8.71    1.12
 -10  14  -6   10.63    1.28
  10  14   6    8.81    1.24
 -10  14  -6    9.56    1.44
  10  14   6   10.42    1.18
 -12 -14  -6    6.66    0.92
 -12 -14  -6    4.01    0.73
  12  14   6    7.06    1.33
 -12  14  -6    4.07    1.17
 -12  14  -6    6.66    0.98
  12  14   6    5.13    0.91
 -14 -14  -6    9.07    1.04
 -14 -14  -6    7.16    1.09
  14  14   6    6.79    1.51
 -14  14  -6    5.06    1.45
  14  14   6   11.31    1.39
 -14  14  -6    7.88    1.20
 -13 -15   6   -0.54    0.70
  13  15  -6    1.42    0.90
 -11 -15   6    2.89    0.73
 -11 -15   6    2.38    1.59
  11  15  -6    3.68    0.89
  11  15  -6    4.09    1.80
  -9 -15   6    5.96    1.48
  -9 -15   6    7.76    1.02
   9 -15  -6    6.54    0.89
   9  15  -6    5.87    1.57
  -7 -15   6    7.38    0.86
  -7 -15   6    6.59    1.36
   7 -15  -6    7.15    0.98
   7  15  -6    9.57    1.57
   7  15  -6    6.47    0.93
   5 -15  -6   25.08    1.48
  -5 -15   6   27.76    2.21
   5 -15  -6   23.83    1.53
  -5 -15   6   27.93    1.46
   5  15  -6   25.21    1.61
   5  15  -6   28.59    2.31
   3 -15  -6    1.08    0.49
  -3 -15   6    0.51    0.44
  -3 -15   6    1.03    0.88
   3 -15  -6    0.38    0.49
  -3  15   6    0.41    0.54
   3  15  -6    1.54    0.57
   3  15  -6    1.27    1.21
  -1 -15   6   21.17    1.27
   1 -15  -6   18.41    1.27
   1 -15  -6   20.23    1.85
   1  15  -6   18.43    1.99
  -1  15   6   19.90    1.24
  -1 -15  -6    0.14    0.41
  -1 -15  -6    0.78    0.55
   1 -15   6    0.44    0.46
   1  15   6    0.20    0.52
  -1  15  -6   -0.12    0.79
  -1  15  -6    0.73    0.82
   3 -15   6    0.32    0.42
  -3 -15  -6    0.54    0.45
   3  15   6    0.21    0.50
  -3  15  -6    1.36    0.86
   3  15   6    0.30    0.47
  -5 -15  -6    0.12    0.48
   5 -15   6    0.70    0.47
  -5 -15  -6    0.36    0.51
  -5  15  -6   -0.03    0.58
   5  15   6    0.28    0.60
  -5  15  -6    0.78    0.83
   5  15   6   -0.63    0.50
  -7 -15  -6    0.69    0.52
   7 -15   6    0.97    0.52
  -7 -15  -6    1.23    0.58
   7  15   6    1.38    0.73
  -7  15  -6    1.92    0.94
  -7  15  -6    1.25    0.64
   9 -15   6   -0.19    0.53
  -9 -15  -6    0.51    0.57
  -9 -15  -6    0.78    0.63
  -9  15  -6   -0.52    0.92
  -9  15  -6    0.72    0.67
   9  15   6    1.00    0.88
   9  15   6    0.17    0.61
  11 -15   6   10.60    1.21
 -11 -15  -6   10.03    1.38
 -11 -15  -6    8.60    1.00
  11  15   6   10.53    1.46
 -11  15  -6    9.72    1.47
  11  15   6    9.64    1.35
 -11  15  -6   11.79    1.64
 -12 -16   6    0.43    0.68
  12  16  -6    0.01    0.90
  10 -16  -6    2.36    0.73
 -10 -16   6    1.58    0.67
  10  16  -6    3.88    1.85
  10  16  -6    0.47    0.76
  -8 -16   6    5.92    0.87
   8 -16  -6   10.01    1.21
  -8 -16   6    5.93    1.55
   8  16  -6    6.56    1.70
   8  16  -6    7.07    1.03
   6 -16  -6    0.95    0.60
  -6 -16   6    1.54    0.61
  -6 -16   6    2.64    1.33
   6  16  -6    1.15    0.69
   6  16  -6    1.70    1.22
  -6  16   6    1.33    0.50
  -4 -16   6    1.25    0.58
   4 -16  -6    0.65    0.57
   4 -16  -6    1.60    0.61
  -4 -16   6   -2.12    0.98
   4  16  -6    1.88    1.11
   4  16  -6    2.09    0.72
  -4  16   6    0.87    0.52
  -2 -16   6    1.35    0.49
   2 -16  -6    0.55    0.51
   2 -16  -6    1.55    0.56
   2  16  -6    0.49    0.60
  -2  16   6   -0.17    0.52
   2  16  -6   -0.09    0.97
   0 -16   6    1.68    0.53
   0 -16  -6    1.45    0.55
   0 -16  -6    1.84    0.56
   0  16  -6    1.18    0.65
   0  16   6    0.78    0.57
   0  16  -6    1.18    1.02
  -2 -16  -6    1.74    0.60
  -2 -16  -6    3.15    0.65
   2 -16   6    2.26    0.59
  -2  16  -6    2.97    0.72
   2  16   6    2.53    0.68
  -2  16  -6    1.91    1.01
  -4 -16  -6    1.60    0.58
   4 -16   6    0.72    0.52
  -4 -16  -6    1.71    0.61
   4  16   6    2.09    0.60
  -4  16  -6    1.36    1.02
  -4  16  -6    2.89    0.74
   4  16   6    2.37    0.75
   6 -16   6    0.62    0.54
  -6 -16  -6   -0.35    0.57
  -6 -16  -6    0.97    0.64
   6  16   6   -0.01    0.66
  -6  16  -6   -0.88    1.06
   6  16   6    0.93    0.64
  -6  16  -6    1.01    0.98
  -8 -16  -6    4.00    0.84
  -8 -16  -6    5.39    0.86
   8 -16   6    3.71    0.75
   8  16   6    2.18    0.93
   8  16   6    5.00    0.83
  -8  16  -6    4.98    0.91
  -8  16  -6    4.59    1.17
 -10 -16  -6    6.64    0.96
 -10 -16  -6    3.72    0.80
  10 -16   6    5.15    0.88
 -10  16  -6    3.60    1.26
  10  16   6    6.30    1.21
 -10  16  -6    6.61    1.06
  10  16   6    4.33    0.93
   9 -17  -6    6.05    0.96
  -9 -17   6    5.95    0.87
   9  17  -6    5.22    1.03
   9  17  -6    3.78    1.80
  -7 -17   6   30.58    1.77
   7 -17  -6   25.62    1.75
   7  17  -6   27.19    1.94
   7  17  -6   26.44    2.99
  -5 -17   6   30.02    1.75
   5 -17  -6   28.84    1.78
   5  17  -6   31.43    2.00
   5  17  -6   30.80    2.83
  -5  17   6   29.62    1.53
  -3 -17   6   10.48    1.15
   3 -17  -6    9.75    1.23
   3 -17  -6    9.12    1.18
   3  17  -6    8.91    1.62
   3  17  -6    7.34    1.07
  -3  17   6    9.60    1.08
  -1 -17   6    0.26    0.56
   1 -17  -6   -0.07    0.56
   1 -17  -6    1.38    0.63
   1  17  -6   -1.66    1.08
  -1  17   6    0.91    0.65
   1  17  -6   -0.11    0.66
  -1 -17  -6   26.36    1.64
  -1 -17  -6   27.55    1.69
   1 -17   6   25.48    1.56
  -1  17  -6   26.54    1.78
   1  17   6   27.86    1.74
  -1  17  -6   28.10    2.48
  -3 -17  -6    8.38    1.14
  -3 -17  -6    5.55    0.86
   3 -17   6    7.18    0.88
   3  17   6    4.51    0.94
  -3  17  -6    6.92    0.98
  -3  17  -6    5.06    1.32
   5 -17   6    1.05    0.66
  -5 -17  -6    1.32    0.66
  -5 -17  -6    1.47    0.75
  -5  17  -6    1.66    0.81
  -5  17  -6   -0.06    1.09
   5  17   6    0.93    0.79
  -7 -17  -6    9.36    1.05
  -7 -17  -6   11.91    1.22
   7 -17   6   11.22    1.31
   7  17   6   11.44    1.42
   7  17   6   12.85    1.47
  -7  17  -6   11.34    1.67
  -7  17  -6   13.65    1.57
  -9 -17  -6    3.91    0.89
  -9 -17  -6    3.38    0.90
   9 -17   6    2.75    0.82
   9  17   6    3.23    0.93
  -9  17  -6    4.34    1.08
   9  17   6    2.64    1.09
  -9  17  -6    0.77    1.22
  -6 -18   6    3.33    0.83
   6 -18  -6    3.57    0.82
   6  18  -6    2.03    1.64
   6  18  -6    3.52    0.99
  -4 -18   6    7.37    0.97
   4 -18  -6    5.26    0.94
   4  18  -6    7.25    2.42
   4  18  -6    7.80    1.16
  -4  18   6    5.92    0.87
  -2 -18   6   54.59    2.39
   2 -18  -6   47.84    2.45
   2 -18  -6   47.92    2.37
   2  18  -6   55.67    2.67
   2  18  -6   48.67    3.38
  -2  18   6   48.33    2.28
   0 -18  -6   25.77    1.76
   0 -18  -6   25.30    1.72
   0 -18   6   21.85    1.59
   0  18   6   23.90    1.69
   0  18  -6   27.35    1.94
   0  18  -6   26.62    2.62
  -2 -18  -6    1.77    0.79
  -2 -18  -6    0.80    0.69
   2 -18   6    1.46    0.68
   2  18   6    1.09    0.77
  -2  18  -6    2.51    1.34
  -2  18  -6    2.01    0.90
  -4 -18  -6    0.39    0.71
  -4 -18  -6   -0.89    0.73
   4 -18   6    0.62    0.65
  -4  18  -6    0.50    0.91
   4  18   6    2.04    0.90
  -4  18  -6    0.40    1.23
  -6 -18  -6   11.69    1.57
  -6 -18  -6   10.72    1.41
   6 -18   6   15.92    1.47
 -22   0   7    1.77    1.74
 -22   0   7    0.35    1.40
 -22   0   7    0.15    1.14
 -20   0   7    0.12    1.06
 -20   0   7   -0.24    0.83
 -20   0   7    3.68    1.48
 -18   0   7    0.43    0.82
 -18   0   7   -0.38    0.59
 -18   0   7   -0.30    0.96
 -16   0   7    0.22    0.66
 -16   0   7   -0.14    0.89
 -16   0   7    0.23    0.46
 -14   0   7    0.32    0.71
  14   0  -7    0.33    0.20
 -14   0   7   -0.34    0.34
 -14   0   7    0.57    0.51
 -12   0   7    0.40    0.18
 -12   0   7   -0.84    0.42
  12   0  -7    0.21    0.27
 -12   0   7    0.15    0.27
  12   0  -7    0.25    0.17
 -10   0   7    0.28    0.26
  10   0  -7   -0.01    0.37
  10   0  -7    0.25    0.15
 -10   0   7    0.47    0.33
 -10   0   7    0.40    0.11
 -10   0   7    0.53    0.48
  10   0  -7    0.64    0.21
  -8   0   7    0.51    0.29
   8   0  -7   -0.04    0.16
   8   0  -7   -0.29    0.29
  -8   0   7    0.59    0.28
  -8   0   7    0.20    0.32
   8   0  -7    0.26    0.12
   6   0  -7    0.30    0.26
  -6   0   7    0.11    0.15
   6   0  -7    0.30    0.15
   6   0  -7    0.02    0.10
  -6   0   7    0.24    0.21
  -6   0   7   -0.19    0.26
  -6   0   7   -0.32    0.18
   4   0  -7    0.06    0.07
   4   0  -7    0.55    0.15
  -4   0   7    0.29    0.20
   4   0  -7    0.47    0.23
   4   0  -7    0.16    0.10
  -4   0   7    0.02    0.24
  -2   0   7    0.06    0.17
  -2   0   7    0.20    0.19
   2   0  -7    0.08    0.10
  -2   0   7    0.06    0.08
  -2   0   7   -0.01    0.21
   2   0  -7    0.39    0.16
   2   0  -7    0.31    0.35
   0   0   7    0.31    0.25
   0   0  -7    0.23    0.21
   0   0   7    0.02    0.19
   0   0  -7    0.09    0.11
   0   0  -7    0.24    0.30
  -2   0  -7    0.15    0.24
   2   0   7    0.52    0.26
  -2   0  -7   -0.01    0.31
   2   0   7    0.07    0.19
  -2   0  -7    0.00    0.12
   2   0   7    0.08    0.21
   4   0   7    0.06    0.20
  -4   0  -7   -0.04    0.35
   4   0   7    0.90    0.35
  -4   0  -7   -0.12    0.24
   4   0   7    0.17    0.20
  -4   0  -7   -0.05    0.15
   6   0   7    0.42    0.46
  -6   0  -7    0.13    0.32
  -6   0  -7    0.16    0.12
   6   0   7    0.44    0.26
  -6   0  -7    0.56    0.20
   8   0   7    0.58    0.34
  -8   0  -7   -0.02    0.44
  -8   0  -7    0.05    0.19
  -8   0  -7   -0.04    0.18
 -10   0  -7   -0.23    0.49
  10   0   7    0.17    0.36
 -10   0  -7    0.00    0.22
  12   0   7   -0.20    0.33
 -12   0  -7    0.11    0.31
 -12   0  -7    0.29    0.64
 -14   0  -7    0.81    0.77
 -14   0  -7   -0.31    0.34
  14   0   7   -0.26    0.47
 -16   0  -7    0.36    0.48
 -16   0  -7   -0.64    0.95
  16   0   7    0.43    0.61
 -18   0  -7    0.25    0.60
 -20   0  -7    0.57    0.76
 -20   0  -7   -0.18    1.84
 -21  -1   7   16.24    2.40
 -21  -1   7   17.94    1.96
 -21   1   7   22.79    1.92
 -21   1   7   19.81    2.32
 -21   1   7   18.49    2.48
 -19  -1   7    0.44    1.21
 -19  -1   7   -0.43    0.99
 -19  -1   7   -0.95    0.78
 -19   1   7   -1.23    1.21
 -19   1   7    0.77    0.77
 -19   1   7    0.61    0.91
 -17  -1   7   44.99    2.13
 -17  -1   7   39.38    3.17
 -17  -1   7   40.85    3.38
 -17   1   7   42.39    3.25
 -17   1   7   37.11    2.55
 -17   1   7   47.13    2.12
 -15  -1   7    0.92    0.43
 -15  -1   7    1.05    0.66
 -15  -1   7    0.03    0.73
 -15   1   7    0.38    0.45
  15   1  -7    0.93    0.32
 -15   1   7    0.74    0.80
 -15   1   7   -0.17    0.57
 -13  -1   7    1.77    0.69
 -13  -1   7    1.65    0.43
 -13  -1   7    2.66    0.64
 -13   1   7    1.91    0.44
 -13   1   7    0.66    0.61
 -13   1   7    1.60    0.53
  13   1  -7    1.47    0.30
 -11  -1   7    0.51    0.50
 -11  -1   7    1.06    0.45
  11  -1  -7    1.62    0.39
 -11  -1   7    0.61    0.28
 -11   1   7    1.48    0.23
 -11   1   7    1.03    0.57
 -11   1   7    1.80    0.46
 -11   1   7    0.96    0.31
  11   1  -7    1.57    0.59
  11   1  -7    1.08    0.33
  11   1  -7    1.26    0.25
  -9  -1   7    0.00    0.20
  -9  -1   7   -0.30    0.41
   9  -1  -7    0.63    0.30
  -9  -1   7    0.73    0.36
   9   1  -7    0.22    0.18
   9   1  -7    0.51    0.26
  -9   1   7    0.27    0.41
  -9   1   7    0.70    0.15
  -9   1   7    0.81    0.31
   9   1  -7    0.24    0.35
  -9   1   7    0.75    0.24
   7  -1  -7   31.10    1.13
  -7  -1   7   31.27    1.33
  -7  -1   7   28.84    1.58
  -7  -1   7   30.39    1.38
  -7  -1   7   28.38    1.20
   7   1  -7   31.52    1.14
  -7   1   7   31.37    1.00
  -7   1   7   31.33    1.24
  -7   1   7   29.36    1.30
  -7   1   7   30.36    1.16
   7   1  -7   30.75    1.30
  -7   1   7   29.07    1.58
   7   1  -7   27.82    1.09
  -5  -1   7    1.48    0.32
  -5  -1   7    0.74    0.31
   5  -1  -7    1.38    0.25
  -5  -1   7    0.98    0.21
   5  -1  -7    1.06    0.13
  -5   1   7    1.21    0.36
  -5   1   7    1.36    0.21
   5   1  -7    1.17    0.19
   5   1  -7    1.22    0.22
  -5   1   7    1.22    0.21
  -5   1   7    1.06    0.24
  -5   1   7    1.73    0.21
   3  -1  -7   15.10    0.64
   3  -1  -7   15.35    0.57
   3  -1  -7   14.84    0.56
  -3  -1   7   14.92    0.82
   3  -1  -7   16.93    0.73
   3  -1  -7   15.54    1.02
  -3  -1   7   14.83    0.88
  -3  -1   7   13.96    1.09
   3   1  -7   14.28    0.65
  -3   1   7   14.65    0.66
   3   1  -7   14.82    0.68
  -3   1   7   16.67    0.58
  -3   1   7   16.14    0.77
  -3   1   7   14.55    0.90
   3   1  -7   15.55    0.52
   3   1  -7   15.60    0.81
  -3   1   7   15.23    0.88
   1  -1  -7   21.52    0.82
   1  -1  -7   23.57    1.12
   1  -1  -7   22.83    0.97
   1  -1  -7   23.63    0.84
   1  -1  -7   22.95    0.82
  -1  -1   7   23.05    1.05
  -1  -1   7   21.42    1.13
  -1   1   7   22.21    1.07
  -1   1   7   23.38    0.73
  -1   1   7   23.71    1.02
   1   1  -7   22.57    1.05
  -1   1   7   21.97    0.90
   1   1  -7   23.20    0.91
   1   1  -7   21.79    0.89
  -1  -1  -7   99.36    3.28
  -1  -1  -7   96.69    3.09
  -1  -1  -7  102.30    3.35
   1  -1   7   97.77    3.39
   1  -1   7  102.25    3.37
  -1  -1  -7   96.73    3.11
   1   1   7   94.76    3.70
   1   1   7   97.05    3.30
  -1   1  -7   94.49    3.42
  -1   1  -7   97.44    3.16
  -1   1  -7   99.00    3.35
   1   1   7  101.68    3.33
   3  -1   7    0.32    0.23
  -3  -1  -7    0.24    0.16
   3  -1   7    0.65    0.34
  -3  -1  -7   -0.05    0.24
  -3  -1  -7    0.36    0.30
   3  -1   7    0.42    0.23
   3   1   7    0.24    0.25
   3   1   7    0.17    0.28
   3   1   7    0.66    0.21
  -3   1  -7    0.61    0.31
  -3   1  -7    0.40    0.16
  -5  -1  -7    3.04    0.47
   5  -1   7    2.78    0.53
   5  -1   7    2.50    0.42
  -5  -1  -7    3.14    0.51
  -5  -1  -7    2.84    0.17
  -5  -1  -7    2.97    0.34
   5   1   7    2.28    0.40
  -5   1  -7    3.17    0.52
   5   1   7    2.69    0.47
  -5   1  -7    2.94    0.19
  -5   1  -7    2.63    0.35
  -7  -1  -7   20.02    0.97
   7  -1   7   22.27    1.17
  -7  -1  -7   21.60    0.77
  -7  -1  -7   20.92    1.25
  -7   1  -7   21.66    0.78
   7   1   7   18.94    1.12
  -7   1  -7   20.25    1.25
  -7   1  -7   20.37    0.99
  -9  -1  -7   18.47    0.79
  -9  -1  -7   18.79    1.34
   9  -1   7   17.76    1.11
  -9  -1  -7   16.99    0.95
  -9   1  -7   18.45    0.80
   9   1   7   17.61    1.12
  -9   1  -7   17.94    1.32
  -9   1  -7   17.71    0.96
  11  -1   7    2.55    0.53
 -11  -1  -7    1.96    0.40
 -11  -1  -7    1.11    0.57
 -11   1  -7    2.41    0.44
  11   1   7    2.80    0.56
 -11   1  -7    1.51    0.65
 -13  -1  -7    5.85    1.09
  13  -1   7    4.10    0.66
 -13  -1  -7    3.69    0.57
 -13   1  -7    5.04    1.02
  13   1   7    3.91    0.64
 -13   1  -7    4.60    0.70
 -15  -1  -7    0.35    0.42
 -15  -1  -7    0.08    0.86
  15  -1   7    0.19    0.55
 -15   1  -7   -0.17    0.43
 -15   1  -7    1.13    0.91
  15   1   7   -1.01    0.46
 -17  -1  -7   21.46    2.42
 -17  -1  -7   19.61    1.42
 -17   1  -7   16.02    2.30
 -17   1  -7   15.60    1.37
 -19  -1  -7   11.33    2.12
 -19  -1  -7   15.72    1.57
 -19   1  -7   14.58    1.53
 -19   1  -7   13.45    2.16
 -21  -1  -7    3.99    1.03
 -21   1  -7    4.62    2.12
 -21   1  -7    1.84    0.98
 -22  -2   7   -0.86    1.59
 -22  -2   7   -0.53    1.83
 -22  -2   7    1.90    1.14
 -22   2   7    2.72    1.37
 -22   2   7    2.32    2.00
 -20  -2   7   81.08    4.13
 -20  -2   7   72.71    3.63
 -20  -2   7   77.78    4.43
 -20   2   7   76.85    3.83
 -20   2   7   77.08    4.56
 -20   2   7   86.38    3.50
 -18  -2   7   56.10    2.60
 -18  -2   7   54.01    3.45
 -18  -2   7   52.73    3.06
 -18   2   7   57.58    2.53
 -18   2   7   49.94    2.84
 -18   2   7   56.38    3.47
 -16  -2   7    1.11    0.83
 -16  -2   7    1.11    0.87
 -16  -2   7    1.25    0.54
 -16   2   7   -0.79    0.83
 -16   2   7    1.26    0.55
 -16   2   7    0.83    0.66
  16   2  -7    1.07    0.40
 -14  -2   7    4.09    0.61
 -14  -2   7    4.74    0.87
 -14  -2   7    4.03    1.00
 -14   2   7    2.85    0.87
 -14   2   7    3.09    0.69
 -14   2   7    5.18    0.72
  14   2  -7    4.35    0.53
 -12  -2   7   42.14    2.09
 -12  -2   7   43.06    1.79
 -12  -2   7   42.13    2.32
 -12   2   7   40.40    1.69
  12   2  -7   41.03    1.55
 -12   2   7   39.69    1.89
  12   2  -7   43.54    2.01
 -12   2   7   39.12    2.30
 -10  -2   7  108.08    4.17
 -10  -2   7  104.31    3.90
 -10  -2   7  104.26    3.62
 -10   2   7  105.95    4.16
  10   2  -7  104.99    3.47
 -10   2   7  114.45    3.35
  10   2  -7  105.68    3.45
 -10   2   7  104.51    3.70
 -10   2   7  107.04    3.52
  -8  -2   7    0.45    0.20
  -8  -2   7    0.14    0.34
  -8  -2   7    0.43    0.33
  -8  -2   7    0.29    0.32
  -8   2   7    0.51    0.17
  -8   2   7    0.53    0.19
   8   2  -7    0.50    0.37
   8   2  -7    0.67    0.21
   8   2  -7    0.16    0.27
  -8   2   7    0.96    0.36
  -8   2   7    0.85    0.25
   6  -2  -7    0.47    0.12
  -6  -2   7    0.29    0.25
  -6  -2   7    0.17    0.32
  -6  -2   7    0.73    0.29
  -6   2   7    0.60    0.34
  -6   2   7    0.54    0.21
  -6   2   7    0.32    0.14
  -6   2   7    0.90    0.17
  -6   2   7    0.53    0.17
   6   2  -7    0.16    0.28
   6   2  -7    0.23    0.24
  -6   2   7    0.42    0.20
  -4  -2   7   33.50    1.61
  -4  -2   7   33.39    1.48
  -4  -2   7   35.79    1.44
   4  -2  -7   34.36    1.15
  -4   2   7   35.63    1.18
  -4   2   7   35.22    1.48
  -4   2   7   33.91    1.54
   4   2  -7   33.90    1.42
  -4   2   7   33.12    1.28
  -4   2   7   35.14    1.19
   4   2  -7   32.36    1.25
   4   2  -7   34.53    1.29
  -2  -2   7  358.44   10.30
  -2  -2   7  304.48   10.50
   2  -2  -7  359.05   10.31
   2  -2  -7  316.52    9.98
   2  -2  -7  344.35   10.03
   2   2  -7  325.79   10.26
  -2   2   7  333.75   10.14
   2   2  -7  343.64   10.10
  -2   2   7  335.68    9.93
  -2   2   7  346.73   10.03
   2   2  -7  311.59   10.08
  -2   2   7  321.52   10.29
   0  -2  -7    4.51    0.30
   0  -2   7    4.01    0.51
   0  -2   7    4.02    0.56
   0  -2  -7    4.47    0.44
   0  -2   7    4.98    0.21
   0  -2  -7    4.64    0.28
   0  -2  -7    4.76    0.30
   0  -2  -7    5.20    0.57
   0   2  -7    4.76    0.53
   0   2  -7    4.45    0.38
   0   2   7    4.57    0.46
   0   2   7    4.90    0.39
   0   2   7    5.15    0.45
   2  -2   7   19.06    1.20
   2  -2   7   18.86    1.03
  -2  -2  -7   21.02    0.98
   2  -2   7   20.70    0.64
  -2  -2  -7   19.78    0.98
  -2  -2  -7   19.45    0.80
   2  -2   7   20.61    1.09
  -2  -2  -7   19.06    0.80
   2   2   7   19.95    0.90
  -2   2  -7   19.45    1.04
  -2   2  -7   20.21    0.88
   2   2   7   22.50    1.05
   2   2   7   19.35    1.02
  -4  -2  -7   49.54    1.84
  -4  -2  -7   48.85    1.93
   4  -2   7   47.99    1.94
   4  -2   7   48.35    2.02
  -4  -2  -7   48.81    1.48
   4  -2   7   47.00    1.94
  -4  -2  -7   47.22    1.73
  -4   2  -7   49.40    1.78
   4   2   7   50.16    1.97
  -4   2  -7   50.60    1.52
   4   2   7   49.11    1.99
  -4   2  -7   47.03    1.99
  -6  -2  -7  156.37    5.20
   6  -2   7  156.47    5.16
  -6  -2  -7  154.94    5.00
  -6  -2  -7  150.82    4.91
   6   2   7  158.34    5.26
  -6   2  -7  149.51    4.95
  -6   2  -7  160.73    4.68
  -6   2  -7  149.54    5.22
   6   2   7  153.85    5.16
  -8  -2  -7    6.25    0.57
   8  -2   7    8.19    0.76
  -8  -2  -7    7.45    0.86
   8   2   7    8.73    0.77
  -8   2  -7    6.77    0.90
  -8   2  -7    6.61    0.57
  -8   2  -7    7.17    0.47
  10  -2   7   26.40    1.43
 -10  -2  -7   24.25    1.21
  10   2   7   24.02    1.38
 -10   2  -7   25.61    1.60
 -10   2  -7   23.56    1.20
 -12  -2  -7   11.61    0.86
 -12  -2  -7   10.12    1.37
  12  -2   7   11.85    1.02
 -12   2  -7   10.21    0.85
  12   2   7   10.31    0.99
 -12   2  -7   11.05    1.31
 -14  -2  -7   15.93    1.11
  14  -2   7   15.47    1.28
 -14  -2  -7   13.76    1.70
 -14   2  -7   15.71    1.11
  14   2   7   14.53    1.24
 -14   2  -7   15.83    1.71
  16  -2   7   73.37    3.14
 -16  -2  -7   66.76    2.90
 -16  -2  -7   77.38    3.79
  16   2   7   70.30    3.08
 -16   2  -7   70.31    2.98
 -16   2  -7   69.12    3.60
 -18  -2  -7   12.88    2.05
 -18  -2  -7   12.95    1.42
 -18   2  -7   15.53    1.44
 -18   2  -7   12.00    1.80
 -20  -2  -7   21.76    1.78
 -20   2  -7   16.43    2.46
 -20   2  -7   17.71    1.78
 -21  -3   7   36.19    2.40
 -21  -3   7   31.49    3.36
 -21  -3   7   32.37    3.08
 -21   3   7   38.47    3.64
 -21   3   7   32.34    2.55
 -19  -3   7   -0.12    1.15
 -19  -3   7    0.75    0.77
 -19  -3   7   -1.81    1.08
 -19   3   7   -1.29    0.83
 -19   3   7   -2.35    1.19
 -19   3   7    1.06    0.76
 -17  -3   7   12.40    1.22
 -17  -3   7   11.28    1.67
 -17  -3   7    9.21    1.51
  17   3  -7   11.44    0.92
 -17   3   7   11.89    1.22
 -17   3   7   12.76    1.95
 -17   3   7   10.59    1.39
 -15  -3   7   72.36    3.38
 -15  -3   7   72.47    3.60
 -15  -3   7   78.07    2.97
  15   3  -7   75.94    2.64
 -15   3   7   79.22    2.85
 -15   3   7   67.52    3.08
 -15   3   7   72.95    3.70
 -13  -3   7  131.17    5.18
 -13  -3   7  131.78    4.95
 -13  -3   7  137.25    4.59
 -13   3   7  129.26    5.24
 -13   3   7  137.26    4.43
  13   3  -7  130.48    4.30
 -13   3   7  129.46    4.68
 -11  -3   7    8.47    1.00
 -11  -3   7    9.11    0.74
 -11  -3   7    8.88    1.14
 -11   3   7    9.99    0.66
  11   3  -7    9.02    1.02
  11   3  -7    8.61    0.62
 -11   3   7    7.93    0.76
 -11   3   7    7.67    1.11
  -9  -3   7   77.99    3.04
  -9  -3   7   79.08    2.78
  -9  -3   7   81.14    3.29
  -9   3   7   78.28    2.60
  -9   3   7   72.89    3.19
   9   3  -7   77.21    2.66
  -9   3   7   77.80    2.76
  -9   3   7   80.06    2.55
   9   3  -7   81.44    2.94
  -7  -3   7  254.47    8.15
  -7  -3   7  245.11    7.89
  -7  -3   7  263.40    8.05
  -7  -3   7  246.53    8.35
   7   3  -7  240.26    7.80
  -7   3   7  251.78    7.76
   7   3  -7  264.63    8.06
  -7   3   7  269.31    7.70
  -7   3   7  261.95    7.66
  -7   3   7  251.66    7.70
  -7   3   7  248.89    8.28
  -7   3   7  251.33    7.83
   5  -3  -7   79.86    2.53
  -5  -3   7   77.25    3.05
  -5  -3   7   83.26    2.85
   5   3  -7   78.71    2.84
  -5   3   7   78.10    2.59
  -5   3   7   76.84    2.55
  -5   3   7   84.28    2.51
  -5   3   7   81.24    2.52
  -5   3   7   85.30    2.54
   5   3  -7   76.51    2.67
   5   3  -7   78.51    2.65
  -5   3   7   73.70    3.20
  -3  -3   7    3.38    0.49
  -3  -3   7    3.85    0.52
   3  -3  -7    3.17    0.26
  -3  -3   7    2.64    0.45
  -3   3   7    2.54    0.31
  -3   3   7    3.37    0.26
  -3   3   7    3.13    0.48
  -3   3   7    3.65    0.49
  -3   3   7    3.04    0.29
   3   3  -7    3.27    0.48
   3   3  -7    2.46    0.36
   3   3  -7    3.74    0.36
  -3   3   7    3.27    0.34
  -1  -3   7   43.63    1.91
   1  -3  -7   45.85    1.74
  -1  -3   7   46.63    1.49
   1  -3  -7   44.42    1.55
  -1  -3   7   46.81    1.83
   1  -3  -7   48.90    1.55
  -1   3   7   44.52    1.72
  -1   3   7   48.61    1.47
   1   3  -7   43.25    1.64
  -1   3   7   47.35    1.57
   1   3  -7   46.23    1.83
  -1   3   7   46.19    1.68
  -1  -3  -7   75.73    2.23
   1  -3   7   71.14    2.64
   1  -3   7   64.96    2.77
  -1  -3  -7   72.03    2.38
  -1  -3  -7   73.45    2.31
  -1  -3  -7   79.00    2.50
   1  -3   7   75.39    2.25
   1  -3   7   71.36    2.71
   1   3   7   69.86    2.69
   1   3   7   74.58    2.46
  -1   3  -7   72.37    2.47
  -1   3  -7   71.36    2.66
   1   3   7   76.26    2.58
  -3  -3  -7  299.39    8.27
   3  -3   7  277.07    8.51
   3  -3   7  269.81    8.50
  -3  -3  -7  267.59    8.00
  -3  -3  -7  256.57    8.45
   3  -3   7  261.03    8.02
  -3  -3  -7  260.71    8.16
   3  -3   7  266.47    8.45
  -3  -3  -7  260.34    8.19
   3   3   7  266.23    8.45
   3   3   7  269.74    8.19
  -3   3  -7  268.44    8.52
  -3   3  -7  266.06    8.29
   3   3   7  275.57    8.47
  -5  -3  -7   71.14    2.48
  -5  -3  -7   72.61    2.72
  -5  -3  -7   75.75    2.54
  -5  -3  -7   73.16    2.49
  -5  -3  -7   71.26    2.28
   5  -3   7   74.84    2.73
   5   3   7   77.92    2.84
  -5   3  -7   75.32    2.57
   5   3   7   72.77    2.73
  -5   3  -7   72.94    2.82
  -5   3  -7   74.88    2.31
  -7  -3  -7   83.48    2.94
  -7  -3  -7   82.02    2.88
   7  -3   7   79.77    3.02
  -7  -3  -7   79.32    3.09
  -7   3  -7   84.59    2.89
  -7   3  -7   81.80    3.18
   7   3   7   84.54    3.22
  -7   3  -7   82.29    2.61
   7   3   7   83.42    3.06
  -9  -3  -7  230.47    7.24
  -9  -3  -7  220.44    7.56
   9  -3   7  233.71    7.47
  -9   3  -7  222.58    7.61
   9   3   7  229.35    7.48
  -9   3  -7  236.85    7.29
 -11  -3  -7   66.49    2.55
  11  -3   7   70.52    2.78
 -11  -3  -7   66.42    3.01
 -11   3  -7   65.05    2.55
  11   3   7   69.16    2.78
 -11   3  -7   67.77    2.99
 -13  -3  -7    0.65    0.38
 -13  -3  -7    0.58    0.75
  13  -3   7    0.56    0.50
 -13   3  -7    0.85    0.73
  13   3   7    0.45    0.49
 -13   3  -7    1.04    0.40
 -15  -3  -7   14.85    1.20
 -15  -3  -7   14.96    2.06
  15  -3   7   15.43    1.39
  15   3   7   15.46    1.37
 -15   3  -7   13.98    1.81
 -15   3  -7   13.97    1.16
 -17  -3  -7   56.23    2.51
 -17  -3  -7   52.01    3.53
 -17   3  -7   52.14    2.46
 -17   3  -7   49.52    4.29
 -19  -3  -7   25.48    1.87
 -19   3  -7   25.74    2.95
 -19   3  -7   28.03    1.93
 -21  -3  -7   11.08    1.47
 -21   3  -7   17.30    1.90
 -20  -4   7   13.02    1.67
 -20  -4   7   10.55    1.85
 -20  -4   7   14.74    2.17
 -20   4   7   10.99    1.51
 -20   4   7   11.26    2.04
 -18  -4   7   83.28    4.04
 -18  -4   7   82.30    4.23
 -18  -4   7   80.62    3.42
 -18   4   7   78.90    4.34
  18   4  -7   84.08    3.00
 -18   4   7   77.78    3.60
 -16  -4   7   59.96    2.55
 -16  -4   7   59.37    3.07
 -16  -4   7   55.50    3.20
 -16   4   7   50.63    2.60
 -16   4   7   52.65    3.29
  16   4  -7   57.77    2.22
 -16   4   7   59.57    2.40
 -14  -4   7   12.05    1.46
 -14  -4   7   13.31    1.57
 -14  -4   7   12.61    1.01
 -14   4   7   12.40    0.96
 -14   4   7   11.76    1.09
 -14   4   7   13.34    1.72
  14   4  -7   11.60    0.86
 -12  -4   7  118.88    4.72
 -12  -4   7  116.53    4.51
 -12  -4   7  119.97    4.15
 -12   4   7  120.44    3.93
  12   4  -7  124.53    4.38
  12   4  -7  120.24    3.96
 -12   4   7  114.38    4.13
 -12   4   7  115.33    4.78
 -10  -4   7  167.55    5.59
 -10  -4   7  166.04    5.91
 -10  -4   7  175.13    6.17
  10   4  -7  174.07    5.48
 -10   4   7  167.03    5.51
 -10   4   7  168.73    6.15
 -10   4   7  172.83    5.37
  10   4  -7  180.40    5.81
  -8  -4   7   69.07    2.54
  -8  -4   7   69.05    2.71
  -8  -4   7   70.02    2.96
  -8  -4   7   73.61    2.83
   8   4  -7   71.85    2.47
  -8   4   7   69.53    2.41
   8   4  -7   72.16    2.77
  -8   4   7   67.73    2.90
  -8   4   7   72.61    2.26
  -8   4   7   72.75    2.32
  -6  -4   7   74.61    2.98
  -6  -4   7   76.93    2.76
   6  -4  -7   75.24    2.42
  -6  -4   7   72.85    2.59
  -6   4   7   75.25    2.46
   6   4  -7   74.36    2.77
  -6   4   7   73.05    2.40
  -6   4   7   71.60    2.85
  -6   4   7   74.62    2.34
   6   4  -7   70.71    2.53
  -6   4   7   76.55    2.32
   4  -4  -7  209.47    6.54
  -4  -4   7  232.73    6.91
  -4  -4   7  212.08    6.86
  -4  -4   7  211.30    7.08
  -4   4   7  215.88    6.56
  -4   4   7  209.23    6.85
   4   4  -7  205.34    6.67
  -4   4   7  207.93    6.88
  -4   4   7  229.97    6.48
   4   4  -7  219.60    6.91
  -4   4   7  212.24    6.55
  -4   4   7  213.60    6.53
   2  -4  -7  111.61    3.55
   2  -4  -7  110.25    3.49
  -2  -4   7  112.84    3.83
  -2  -4   7  116.34    3.86
  -2  -4   7  110.68    3.99
  -2   4   7  111.60    3.74
  -2   4   7  112.94    3.61
   2   4  -7  121.23    3.45
  -2   4   7  118.61    3.49
   2   4  -7  113.46    3.67
   2   4  -7  112.83    3.88
  -2   4   7  119.08    3.51
  -2   4   7   97.28    3.93
   0  -4   7   28.54    0.99
   0  -4   7   26.60    1.38
   0  -4  -7   29.13    0.98
   0  -4  -7   29.92    1.05
   0  -4   7   30.54    1.38
   0   4  -7   30.58    1.19
   0   4   7   28.27    1.21
   0   4  -7   27.18    1.34
   0   4   7   27.64    1.12
   0   4   7   28.56    1.08
   2  -4   7    2.10    0.44
   2  -4   7    2.59    0.20
  -2  -4  -7    2.46    0.29
  -2  -4  -7    2.53    0.19
   2  -4   7    1.61    0.34
  -2  -4  -7    2.41    0.24
  -2  -4  -7    2.80    0.41
   2   4   7    2.91    0.44
   2   4   7    2.34    0.42
  -2   4  -7    2.65    0.36
  -2   4  -7    2.69    0.50
   2   4   7    2.07    0.27
  -4  -4  -7  235.11    7.22
   4  -4   7  241.82    7.65
  -4  -4  -7  236.98    7.40
   4  -4   7  232.96    7.24
   4  -4   7  246.77    7.76
  -4  -4  -7  221.62    7.45
  -4  -4  -7  262.66    7.36
  -4  -4  -7  250.05    7.61
   4   4   7  246.04    7.72
  -4   4  -7  239.61    7.51
  -4   4  -7  242.02    7.25
   4   4   7  239.76    7.65
  -4   4  -7  236.82    7.76
  -6  -4  -7  176.93    5.30
  -6  -4  -7  171.98    5.61
   6  -4   7  170.28    5.59
  -6  -4  -7  163.57    5.33
  -6  -4  -7  166.29    5.15
  -6  -4  -7  162.97    5.33
   6   4   7  176.07    5.75
   6   4   7  166.98    5.59
  -6   4  -7  163.14    5.71
  -6   4  -7  171.97    5.18
  -6   4  -7  171.44    5.44
  -8  -4  -7   74.81    2.72
  -8  -4  -7   80.10    2.76
  -8  -4  -7   76.90    3.04
  -8  -4  -7   79.77    2.72
   8  -4   7   79.61    2.96
  -8   4  -7   75.86    2.79
   8   4   7   78.07    2.97
  -8   4  -7   82.60    3.17
 -10  -4  -7    7.40    0.67
 -10  -4  -7    6.93    1.09
  10  -4   7    6.72    0.81
 -10   4  -7    6.45    1.01
  10   4   7    7.36    0.82
 -10   4  -7    7.36    0.68
 -12  -4  -7  185.56    5.98
  12  -4   7  175.56    6.14
 -12  -4  -7  179.49    6.44
  12   4   7  179.61    6.17
 -12   4  -7  182.02    6.00
 -12   4  -7  181.98    6.47
 -14  -4  -7  104.91    4.39
 -14  -4  -7  102.55    3.70
  14  -4   7  100.36    3.88
 -14   4  -7   96.03    3.67
  14   4   7  100.56    3.91
 -14   4  -7   95.28    4.19
 -16  -4  -7    9.92    1.74
 -16  -4  -7   11.02    1.16
 -16  -4  -7   12.17    0.97
 -16   4  -7   10.94    1.60
 -16   4  -7    9.54    1.10
 -18  -4  -7    1.54    0.59
 -18  -4  -7    1.04    0.68
 -18   4  -7    2.19    0.74
 -18   4  -7    1.95    1.35
 -20  -4  -7   46.06    2.20
 -20  -4  -7   39.47    2.43
 -20   4  -7   41.02    2.45
 -20   4  -7   46.79    3.69
 -21  -5   7   21.22    3.39
 -21  -5   7   23.76    3.24
 -21  -5   7   31.67    2.24
 -21   5   7   25.49    3.05
 -21   5   7   28.06    2.44
 -19  -5   7    1.39    1.38
 -19  -5   7    5.30    0.99
 -19  -5   7    2.07    1.42
  19   5  -7    2.91    0.79
 -19   5   7    0.67    1.39
 -19   5   7    3.61    1.08
 -17  -5   7   11.67    1.68
 -17  -5   7   11.42    1.24
 -17  -5   7   10.25    1.60
  17   5  -7   10.49    1.08
 -17   5   7    9.06    1.35
 -17   5   7    8.87    1.65
 -15  -5   7  137.27    5.22
 -15  -5   7  122.88    5.28
 -15  -5   7  131.12    4.65
 -15   5   7  120.45    4.62
  15   5  -7  130.47    4.38
 -15   5   7  133.70    4.41
 -15   5   7  123.36    5.44
 -13  -5   7  108.70    4.47
 -13  -5   7  108.62    4.31
 -13  -5   7  107.87    3.88
 -13   5   7   97.96    3.78
  13   5  -7  105.04    3.68
 -13   5   7  103.11    4.57
  13   5  -7  111.78    4.20
 -13   5   7  110.20    3.62
 -11  -5   7   14.32    1.28
 -11  -5   7   12.74    0.92
 -11  -5   7   11.49    1.30
 -11   5   7   13.45    1.39
  11   5  -7   13.60    1.33
 -11   5   7   12.48    0.75
  11   5  -7   15.27    0.90
 -11   5   7   14.23    0.87
  -9  -5   7   16.40    1.24
  -9  -5   7   18.36    1.40
  -9  -5   7   17.37    0.99
  -9   5   7   18.18    0.73
  -9   5   7   17.04    0.83
   9   5  -7   17.07    1.25
  -9   5   7   17.16    0.75
   9   5  -7   17.28    0.92
  -9   5   7   18.09    1.38
  -7  -5   7  356.19   11.25
   7  -5  -7  341.25   10.58
  -7  -5   7  348.75   10.79
  -7   5   7  345.83   11.13
   7   5  -7  350.31   11.01
  -7   5   7  360.83   10.42
   7   5  -7  340.23   10.73
  -7   5   7  350.04   10.48
  -7   5   7  358.40   10.50
  -7   5   7  344.53   10.52
  -5  -5   7  261.04    8.23
  -5  -5   7  255.32    8.45
   5  -5  -7  251.93    7.88
   5   5  -7  248.39    8.01
   5   5  -7  272.25    8.30
  -5   5   7  253.23    8.15
  -5   5   7  253.61    8.26
  -5   5   7  253.33    7.78
  -5   5   7  277.05    7.73
  -3  -5   7    3.62    0.54
   3  -5  -7    3.07    0.33
  -3  -5   7    3.27    0.59
   3  -5  -7    3.29    0.29
  -3  -5   7    2.56    0.48
  -3   5   7    2.68    0.33
   3   5  -7    3.05    0.22
   3   5  -7    3.76    0.40
   3   5  -7    2.54    0.45
  -3   5   7    3.52    0.28
  -3   5   7    3.58    0.48
  -3   5   7    2.83    0.32
  -3   5   7    4.07    0.50
   1  -5  -7   11.19    0.58
  -1  -5   7   11.55    0.91
  -1  -5   7   10.22    0.91
  -1  -5   7   11.82    0.52
   1  -5  -7   11.36    0.51
   1   5  -7   12.67    0.53
  -1   5   7   11.40    0.63
   1   5  -7   11.52    0.85
   1   5  -7   11.93    0.67
  -1   5   7   11.88    0.53
  -1   5   7   11.81    0.56
  -1   5   7    9.43    1.03
  -1   5   7   11.88    0.66
   1  -5   7  324.86    9.99
   1  -5   7  333.05   10.52
  -1  -5  -7  358.83   10.04
  -1  -5  -7  321.56   10.09
  -1  -5  -7  324.04    9.97
   1  -5   7  326.01   10.32
   1   5   7  330.09   10.33
   1   5   7  334.99   10.00
  -1   5  -7  328.06   10.22
   1   5   7  350.35   10.30
  -1   5  -7  333.92   10.46
  -3  -5  -7  184.22    5.65
   3  -5   7  182.95    5.97
   3  -5   7  182.63    5.62
  -3  -5  -7  182.47    5.60
   3  -5   7  188.79    6.14
  -3  -5  -7  179.45    5.76
  -3   5  -7  190.95    5.87
   3   5   7  185.86    6.05
   3   5   7  187.53    5.99
  -5  -5  -7   37.56    1.46
  -5  -5  -7   37.98    1.31
   5  -5   7   38.59    1.67
  -5  -5  -7   39.16    1.69
  -5  -5  -7   38.55    1.43
   5  -5   7   38.87    1.33
   5   5   7   36.99    1.64
   5   5   7   40.23    1.83
  -5   5  -7   39.05    1.56
  -5   5  -7   39.39    1.36
  -5   5  -7   36.74    1.81
   7  -5   7   53.45    2.17
  -7  -5  -7   51.87    2.24
  -7  -5  -7   51.21    1.78
  -7  -5  -7   54.75    1.85
  -7  -5  -7   52.99    1.94
  -7  -5  -7   50.31    1.94
  -7   5  -7   54.19    2.04
   7   5   7   55.36    2.45
  -7   5  -7   53.12    2.36
   7   5   7   54.63    2.19
  -9  -5  -7  181.07    5.98
  -9  -5  -7  182.85    5.95
  -9  -5  -7  187.62    6.37
  -9  -5  -7  186.43    5.91
   9  -5   7  190.55    6.22
  -9   5  -7  187.47    6.45
   9   5   7  191.36    6.25
  -9   5  -7  188.60    6.08
 -11  -5  -7  191.14    6.55
 -11  -5  -7  189.47    6.07
 -11  -5  -7  183.25    5.99
  11  -5   7  184.52    6.26
 -11   5  -7  187.23    6.12
  11   5   7  182.18    6.27
 -11   5  -7  182.66    6.53
 -13  -5  -7   10.76    0.82
  13  -5   7    9.84    1.09
 -13  -5  -7   10.65    0.97
 -13  -5  -7   10.54    1.42
 -13   5  -7   10.96    0.95
 -13   5  -7   10.38    1.47
  13   5   7    8.87    1.06
 -15  -5  -7   47.81    2.58
 -15  -5  -7   49.17    3.15
  15  -5   7   51.88    2.42
 -15   5  -7   53.19    2.91
  15   5   7   43.16    2.46
 -15   5  -7   45.90    2.60
 -17  -5  -7   56.40    2.63
 -17  -5  -7   56.17    2.43
 -17   5  -7   62.54    3.49
 -17   5  -7   60.40    2.67
 -19  -5  -7  109.39    4.39
 -19  -5  -7  112.68    4.17
 -19   5  -7  117.10    5.43
 -19   5  -7  113.37    4.41
 -20  -6   7   71.42    3.34
 -20  -6   7   68.90    4.44
 -20  -6   7   70.14    4.31
 -20   6   7   67.96    3.42
 -20   6   7   71.18    4.59
  20   6  -7   72.34    2.95
 -18  -6   7  120.28    4.61
 -18  -6   7  118.57    5.42
 -18  -6   7  123.21    5.35
 -18   6   7  112.44    4.56
 -18   6   7  114.78    5.72
  18   6  -7  125.68    4.29
 -16  -6   7   29.25    2.51
 -16  -6   7   22.27    2.51
 -16  -6   7   25.03    2.31
 -16   6   7   25.14    2.53
  16   6  -7   26.44    1.50
 -16   6   7   23.21    1.69
 -14  -6   7   65.14    3.15
 -14  -6   7   62.71    3.23
 -14  -6   7   63.65    2.63
 -14   6   7   55.87    2.49
 -14   6   7   65.12    2.43
 -14   6   7   60.16    3.33
  14   6  -7   63.93    2.48
 -12  -6   7   92.55    3.72
 -12  -6   7   87.74    3.80
 -12  -6   7   86.69    3.26
 -12   6   7   86.59    2.94
  12   6  -7   94.42    3.70
  12   6  -7   84.22    3.13
 -12   6   7   83.55    3.85
 -12   6   7   82.86    3.07
 -10  -6   7   74.01    2.81
 -10  -6   7   75.32    3.27
 -10  -6   7   76.70    3.20
  10   6  -7   73.24    3.11
 -10   6   7   74.84    2.56
 -10   6   7   78.52    2.47
 -10   6   7   72.02    3.29
  10   6  -7   74.25    2.74
  -8  -6   7   94.08    3.75
  -8  -6   7   90.92    3.31
  -8  -6   7   93.39    3.62
  -8   6   7  100.99    2.90
  -8   6   7   97.48    2.94
   8   6  -7   93.60    3.27
   8   6  -7   96.91    3.61
  -8   6   7   91.28    2.98
  -8   6   7   90.42    3.68
   6  -6  -7    5.83    0.46
  -6  -6   7    4.37    0.68
  -6   6   7    5.49    0.62
  -6   6   7    4.85    0.75
   6   6  -7    5.92    0.53
   6   6  -7    5.58    0.80
  -4  -6   7  363.35   11.31
   4  -6  -7  343.79   10.72
   4  -6  -7  346.94   10.71
  -4  -6   7  347.74   10.98
  -4   6   7  338.48   10.60
  -4   6   7  376.60   10.55
  -4   6   7  353.91   11.00
  -4   6   7  351.59   10.97
   4   6  -7  351.96   10.88
   4   6  -7  373.68   10.53
   4   6  -7  348.37   11.13
  -2  -6   7  336.74   10.56
  -2  -6   7  345.23   10.87
  -2  -6   7  332.35   10.30
   2  -6  -7  322.47   10.27
   2  -6  -7  330.03   10.33
  -2   6   7  353.76   10.23
  -2   6   7  340.86   10.42
   2   6  -7  348.82   10.20
   2   6  -7  327.23   10.47
  -2   6   7  342.34   10.57
   2   6  -7  350.80   10.75
  -2   6   7  365.36   10.38
  -2   6   7  338.46   10.34
   0  -6   7   85.42    2.68
   0  -6  -7   83.20    2.76
   0  -6   7   84.28    3.18
   0  -6  -7   84.90    2.66
   0  -6   7   81.88    2.99
   0   6   7   83.08    2.72
   0   6   7   78.60    2.96
   0   6  -7   82.15    2.67
   0   6  -7   83.50    3.12
   0   6   7   80.34    2.86
   0   6  -7   86.37    2.88
   0   6   7   86.46    2.65
   2  -6   7   51.12    2.20
  -2  -6  -7   51.67    1.73
  -2  -6  -7   55.70    1.85
   2  -6   7   51.40    1.74
  -2  -6  -7   51.88    1.85
   2  -6   7   49.15    2.02
  -2   6  -7   52.52    2.22
   2   6   7   53.78    2.08
   2   6   7   51.00    2.02
  -2   6  -7   53.53    1.96
  -4  -6  -7  280.76    8.77
  -4  -6  -7  289.81    8.94
   4  -6   7  291.90    9.34
   4  -6   7  281.19    8.79
   4  -6   7  292.46    9.12
  -4  -6  -7  286.19    8.81
   4   6   7  283.94    9.12
   4   6   7  307.14    9.30
  -4   6  -7  299.76    9.06
  -4   6  -7  298.77    9.35
  -6  -6  -7   74.38    2.53
  -6  -6  -7   72.81    2.42
   6  -6   7   70.17    2.54
  -6  -6  -7   74.11    2.81
  -6  -6  -7   74.67    2.59
   6  -6   7   75.83    2.79
   6   6   7   80.50    3.06
   6   6   7   76.53    2.81
  -6   6  -7   72.43    2.97
  -6   6  -7   75.55    2.69
   8  -6   7   17.79    1.12
  -8  -6  -7   15.97    0.91
  -8  -6  -7   17.59    1.32
  -8  -6  -7   17.27    0.89
  -8  -6  -7   15.85    0.77
  -8   6  -7   17.41    0.98
   8   6   7   17.70    1.11
  -8   6  -7   16.19    1.27
   8   6   7   16.83    1.59
 -10  -6  -7   12.03    0.87
 -10  -6  -7   11.94    0.81
  10  -6   7   11.66    1.03
 -10  -6  -7   13.12    0.81
 -10  -6  -7   10.47    1.39
 -10   6  -7   12.46    1.27
 -10   6  -7   11.85    0.89
  10   6   7   11.68    1.01
 -12  -6  -7   66.48    2.49
 -12  -6  -7   67.63    2.50
 -12  -6  -7   66.49    2.58
 -12  -6  -7   62.81    3.15
  12  -6   7   64.14    2.74
 -12   6  -7   65.31    2.61
 -12   6  -7   69.23    3.13
  12   6   7   67.13    2.78
  14  -6   7  196.26    6.64
 -14  -6  -7  182.98    6.29
 -14  -6  -7  191.88    6.45
 -14  -6  -7  201.32    8.11
 -14   6  -7  195.12    7.06
  14   6   7  195.69    6.67
 -14   6  -7  189.74    6.47
 -16  -6  -7   37.93    2.04
 -16  -6  -7   40.40    1.86
 -16   6  -7   39.85    2.79
 -16   6  -7   40.30    2.08
 -18  -6  -7    1.19    0.62
 -18  -6  -7    1.78    0.82
 -18   6  -7    3.17    1.45
 -18   6  -7    2.69    0.80
 -20  -6  -7   66.90    2.84
 -20  -6  -7   64.37    3.15
 -20   6  -7   61.99    3.09
 -20   6  -7   66.79    4.27
 -19  -7   7   -0.49    1.40
 -19  -7   7   -0.54    0.83
 -19  -7   7   -1.29    1.54
 -19   7   7   -0.81    0.88
 -19   7   7    1.80    1.68
  19   7  -7    0.13    0.77
 -17  -7   7   33.91    2.87
 -17  -7   7   33.17    1.98
 -17  -7   7   32.64    2.82
 -17   7   7   34.70    3.07
 -17   7   7   30.22    1.88
  17   7  -7   33.12    1.83
 -15  -7   7   52.75    3.03
 -15  -7   7   54.09    3.12
 -15   7   7   45.38    2.19
 -15   7   7   52.50    3.30
  15   7  -7   52.31    2.25
 -13  -7   7   58.69    2.86
 -13  -7   7   55.34    2.90
 -13  -7   7   52.25    2.30
 -13   7   7   48.38    2.06
  13   7  -7   50.60    2.18
  13   7  -7   48.13    4.34
 -13   7   7   50.72    2.93
 -11  -7   7    9.13    0.84
 -11  -7   7    7.35    1.11
 -11  -7   7    8.72    1.19
  11   7  -7    8.71    0.80
 -11   7   7    9.72    0.66
 -11   7   7    9.15    0.61
 -11   7   7    6.16    1.04
  11   7  -7   10.98    1.59
  -9  -7   7   49.31    2.08
  -9  -7   7   50.21    2.43
  -9  -7   7   51.18    2.52
   9   7  -7   52.96    2.54
   9   7  -7   49.92    2.05
  -9   7   7   50.37    2.51
  -9   7   7   52.65    1.68
  -7  -7   7   92.48    3.76
   7  -7  -7   97.99    3.18
  -7   7   7   93.56    3.65
   7   7  -7   95.85    3.73
   7   7  -7   96.78    3.34
  -5  -7   7  137.04    4.89
  -5  -7   7  133.73    4.55
   5  -7  -7  134.64    4.30
   5  -7  -7  136.17    4.32
   5   7  -7  126.17    5.01
   5   7  -7  145.67    4.09
  -5   7   7  127.87    4.86
   5   7  -7  139.17    4.49
  -5   7   7  133.56    4.53
   3  -7  -7   23.76    0.99
   3  -7  -7   25.19    1.03
  -3  -7   7   25.65    1.49
  -3  -7   7   24.15    1.21
  -3  -7   7   23.17    1.00
  -3   7   7   23.16    1.18
  -3   7   7   24.10    0.96
   3   7  -7   22.04    1.62
  -3   7   7   23.61    1.14
   3   7  -7   25.93    0.90
   3   7  -7   24.49    1.15
  -3   7   7   25.56    0.89
  -1  -7   7  101.86    3.50
  -1  -7   7  100.73    3.26
   1  -7  -7  105.50    3.37
  -1  -7   7  101.96    3.78
  -1   7   7   92.06    3.63
  -1   7   7  101.30    3.23
   1   7  -7  103.60    3.46
  -1   7   7  102.33    3.24
  -1   7   7  102.06    3.38
   1   7  -7  105.58    3.74
   1   7  -7   99.61    3.19
   1  -7   7  160.82    5.17
   1  -7   7  161.76    4.93
   1  -7   7  159.86    5.46
  -1  -7  -7  155.34    4.90
  -1  -7  -7  156.26    5.01
   1   7   7  160.48    5.29
  -1   7  -7  151.86    5.38
  -1   7  -7  162.71    5.14
   1   7   7  154.99    5.16
  -3  -7  -7  110.26    3.60
   3  -7   7  114.05    4.03
  -3  -7  -7  107.12    3.46
   3  -7   7  105.72    3.73
  -3  -7  -7  111.02    3.34
   3  -7   7  108.34    3.48
  -3  -7  -7  116.74    3.61
  -3   7  -7  103.75    3.96
  -3   7  -7  109.62    3.71
   3   7   7  106.40    3.74
   3   7   7  113.14    3.91
  -5  -7  -7    6.40    0.50
   5  -7   7    7.37    0.71
   5  -7   7    6.72    0.45
  -5  -7  -7    6.84    0.56
  -5   7  -7    7.61    0.91
   5   7   7    8.26    1.03
  -5   7  -7    6.94    0.62
   5   7   7    7.50    0.69
   7  -7   7   34.55    1.32
  -7  -7  -7   34.06    1.44
  -7  -7  -7   35.18    1.40
  -7  -7  -7   36.36    1.78
  -7  -7  -7   33.19    1.30
   7  -7   7   34.38    1.59
   7   7   7   35.68    1.62
   7   7   7   34.56    2.18
  -7   7  -7   33.71    1.52
  -7   7  -7   34.56    1.86
  -9  -7  -7  158.43    5.14
  -9  -7  -7  155.63    4.98
   9  -7   7  161.09    5.36
  -9  -7  -7  154.19    5.14
  -9  -7  -7  153.72    5.51
  -9   7  -7  159.00    5.68
  -9   7  -7  159.82    5.27
   9   7   7  162.18    5.39
 -11  -7  -7   46.80    1.92
 -11  -7  -7   44.99    2.55
  11  -7   7   49.57    2.17
 -11  -7  -7   46.47    1.98
 -11   7  -7   48.15    2.48
  11   7   7   49.23    2.18
 -11   7  -7   48.01    2.06
  13  -7   7    9.49    1.16
 -13  -7  -7    8.19    0.79
 -13  -7  -7    7.14    0.95
  13   7   7    8.17    1.12
 -13   7  -7    9.11    1.26
 -13   7  -7   10.07    0.96
 -15  -7  -7   17.10    1.16
 -15  -7  -7   16.98    1.38
 -15   7  -7   16.56    2.04
 -15   7  -7   18.74    1.35
 -17  -7  -7   65.99    2.94
 -17  -7  -7   69.41    2.77
 -17   7  -7   65.38    2.96
 -17   7  -7   65.93    3.75
 -19  -7  -7   39.18    2.04
 -19  -7  -7   38.09    2.34
 -19   7  -7   31.32    3.22
 -19   7  -7   38.63    2.34
 -20  -8   7   33.65    3.79
 -20  -8   7   26.37    3.72
 -20  -8   7   30.33    2.36
 -20   8   7   32.79    2.23
  20   8  -7   36.49    2.20
 -20   8   7   31.69    3.75
 -18  -8   7   52.94    2.71
 -18  -8   7   49.78    3.69
 -18  -8   7   53.95    3.84
 -18   8   7   48.38    3.92
  18   8  -7   54.37    2.53
 -18   8   7   51.47    2.54
 -16  -8   7    3.89    1.40
 -16  -8   7    5.29    1.36
 -16  -8   7    3.86    0.82
 -16   8   7    7.24    1.53
  16   8  -7    4.39    0.79
 -16   8   7    4.32    0.76
 -14  -8   7   14.89    1.90
 -14  -8   7   10.67    1.50
 -14   8   7   10.63    0.96
 -14   8   7   13.89    1.95
  14   8  -7   13.87    1.17
 -12  -8   7   67.60    2.73
 -12  -8   7   68.74    3.23
 -12  -8   7   67.54    3.28
 -12   8   7   63.78    2.32
 -12   8   7   62.61    3.32
  12   8  -7   67.14    2.66
  12   8  -7   66.51    3.26
 -10  -8   7   87.93    3.68
 -10  -8   7   84.36    3.17
 -10  -8   7   87.01    3.59
  10   8  -7   85.16    3.61
  10   8  -7   83.84    3.13
 -10   8   7   76.70    3.61
  -8  -8   7    4.78    0.80
  -8   8   7    4.91    0.82
   8   8  -7    5.23    0.95
   8   8  -7    4.53    0.61
   6  -8  -7   10.20    0.66
  -6  -8   7   10.15    0.90
   6  -8  -7    9.99    0.66
  -6  -8   7    9.57    1.07
   6   8  -7   10.75    0.79
  -6   8   7    8.88    0.79
   6   8  -7    9.72    1.12
  -6   8   7   10.20    0.97
   4  -8  -7   28.40    1.19
  -4  -8   7   28.46    1.36
  -4  -8   7   26.98    1.15
  -4  -8   7   27.52    1.63
   4  -8  -7   27.58    1.14
  -4   8   7   27.49    1.02
  -4   8   7   28.99    0.97
  -4   8   7   27.46    1.33
   4   8  -7   27.24    1.01
   4   8  -7   27.18    1.30
  -4   8   7   27.43    1.31
   4   8  -7   27.76    1.62
   2  -8  -7  124.46    3.89
  -2  -8   7  126.57    3.91
  -2  -8   7  124.90    4.10
   2  -8  -7  118.57    3.93
  -2  -8   7  117.28    4.40
  -2   8   7  122.76    3.90
  -2   8   7  124.45    3.80
   2   8  -7  120.26    4.08
  -2   8   7  114.21    4.07
   2   8  -7  126.91    4.40
  -2   8   7  117.97    3.92
   2   8  -7  117.21    3.78
   0  -8   7   16.79    0.76
   0  -8   7   17.28    1.02
   0  -8  -7   16.98    0.78
   0  -8   7   17.23    1.20
   0  -8  -7   15.72    0.81
   0   8  -7   16.47    0.91
   0   8  -7   17.39    1.19
   0   8   7   15.43    0.95
   0   8   7   15.60    0.94
  -2  -8  -7   73.22    2.52
  -2  -8  -7   70.77    2.40
   2  -8   7   74.87    2.94
   2  -8   7   72.59    2.63
   2  -8   7   71.07    2.41
   2   8   7   71.65    2.76
  -2   8  -7   73.23    2.92
   2   8   7   71.16    2.61
  -2   8  -7   71.35    2.61
  -4  -8  -7   24.51    1.12
   4  -8   7   24.37    1.02
   4  -8   7   25.83    1.49
  -4  -8  -7   24.82    1.26
   4  -8   7   25.39    1.26
  -4  -8  -7   24.85    1.02
  -4  -8  -7   25.12    0.90
   4   8   7   24.81    1.24
  -4   8  -7   25.24    1.22
  -4   8  -7   25.51    1.50
  -6  -8  -7   69.41    2.40
  -6  -8  -7   68.53    3.17
  -6  -8  -7   72.49    2.41
   6  -8   7   68.18    2.64
   6  -8   7   71.79    2.43
  -6  -8  -7   70.68    2.53
   6   8   7   71.16    2.67
  -6   8  -7   72.70    2.64
  -6   8  -7   68.81    2.96
   6   8   7   78.55    3.11
   8  -8   7   18.54    1.15
  -8  -8  -7   16.91    1.62
  -8  -8  -7   17.21    0.97
  -8  -8  -7   17.11    0.86
   8  -8   7   18.48    0.89
  -8  -8  -7   17.85    0.96
   8   8   7   16.58    1.11
  -8   8  -7   18.41    1.45
  -8   8  -7   18.61    1.07
 -10  -8  -7   24.68    1.15
 -10  -8  -7   24.77    1.25
  10  -8   7   25.37    1.44
 -10  -8  -7   25.51    1.29
 -10   8  -7   25.62    1.36
 -10   8  -7   25.22    1.76
  10   8   7   25.71    1.44
 -12  -8  -7   40.32    1.82
 -12  -8  -7   37.84    1.63
 -12  -8  -7   38.00    1.72
  12  -8   7   37.85    1.99
 -12   8  -7   38.94    1.86
  12   8   7   40.40    2.00
 -12   8  -7   41.81    2.38
 -14  -8  -7   31.71    1.55
 -14  -8  -7   26.46    1.84
 -14   8  -7   28.36    1.80
 -14   8  -7   24.94    2.21
 -16  -8  -7    7.71    1.00
 -16  -8  -7    6.56    0.81
 -16   8  -7    8.98    1.21
 -16   8  -7    7.37    1.42
 -18  -8  -7   18.68    1.77
 -18  -8  -7   20.39    1.52
 -18   8  -7   17.84    1.73
 -18   8  -7   19.63    2.64
 -19  -9   7   -2.18    1.96
 -19  -9   7    1.59    0.97
 -19  -9   7   -3.73    1.71
 -19   9   7   -1.75    1.80
  19   9  -7    2.10    0.97
 -19   9   7    2.45    0.92
 -17  -9   7    0.87    1.37
 -17  -9   7    1.53    0.80
 -17  -9   7    2.14    1.53
 -17   9   7    0.48    0.70
 -17   9   7   -0.71    1.37
  17   9  -7    0.57    0.76
 -15  -9   7    3.61    1.36
 -15  -9   7    3.55    0.79
 -15  -9   7    3.63    1.27
 -15   9   7    4.91    0.69
 -15   9   7    6.75    1.41
  15   9  -7    5.20    0.84
 -13  -9   7   67.58    3.38
 -13  -9   7   66.65    3.37
 -13   9   7   55.66    3.35
  13   9  -7   63.35    2.71
 -13   9   7   61.05    2.25
  13   9  -7   66.41    3.49
 -11  -9   7    6.60    1.11
 -11  -9   7    8.78    0.94
 -11   9   7    8.82    1.28
  11   9  -7    9.93    0.95
  11   9  -7   10.13    1.47
  -9  -9   7   52.49    2.68
   9   9  -7   51.62    2.20
  -9   9   7   50.30    2.62
   9   9  -7   55.54    2.69
   7  -9  -7   37.29    1.56
  -7  -9   7   39.23    2.14
  -7  -9   7   39.36    1.80
   7  -9  -7   39.03    1.59
  -7   9   7   38.81    2.00
   7   9  -7   38.35    2.14
   7   9  -7   38.36    1.72
  -7   9   7   38.58    1.73
  -5  -9   7    0.92    0.58
  -5  -9   7    1.74    0.46
   5  -9  -7    1.50    0.36
  -5  -9   7    1.42    0.29
   5  -9  -7    1.45    0.33
   5   9  -7    2.00    0.42
   5   9  -7    2.42    0.69
  -5   9   7    1.33    0.61
  -5   9   7    2.26    0.46
  -3  -9   7    3.37    0.42
   3  -9  -7    3.60    0.45
  -3  -9   7    2.40    0.57
  -3  -9   7    3.03    0.55
   3  -9  -7    3.66    0.45
  -3   9   7    2.81    0.48
  -3   9   7    3.50    0.46
   3   9  -7    3.04    0.69
   3   9  -7    2.77    0.44
  -3   9   7    2.78    0.38
  -3   9   7    3.00    0.44
   1  -9  -7    0.80    0.26
  -1  -9   7    0.35    0.48
  -1  -9   7    0.45    0.21
  -1  -9   7    0.21    0.38
   1  -9  -7    0.35    0.21
   1   9  -7    0.29    0.23
  -1   9   7    0.16    0.33
   1   9  -7    0.27    0.39
  -1  -9  -7   10.76    0.69
   1  -9   7   11.30    1.03
   1  -9   7   11.85    0.64
  -1  -9  -7    9.64    0.62
   1  -9   7   10.62    0.94
  -1   9  -7   10.00    0.75
   1   9   7    8.80    0.92
  -1   9  -7   11.52    1.05
   1   9   7   10.20    0.76
   3  -9   7   43.88    2.16
   3  -9   7   48.91    1.71
  -3  -9  -7   45.10    1.68
   3  -9   7   46.58    1.87
  -3  -9  -7   45.98    1.79
   3   9   7   46.03    1.86
   3   9   7   48.22    2.17
  -3   9  -7   48.15    2.23
  -3   9  -7   45.14    1.88
  -5  -9  -7   64.50    2.42
   5  -9   7   67.66    2.33
  -5  -9  -7   66.80    2.18
  -5  -9  -7   65.82    2.31
   5  -9   7   66.08    2.50
   5   9   7   69.00    2.54
   5   9   7   80.12    4.09
  -5   9  -7   66.03    2.53
  -5   9  -7   64.31    2.86
  -7  -9  -7   15.39    0.82
   7  -9   7   14.90    0.80
  -7  -9  -7   13.78    0.88
  -7  -9  -7   13.96    0.81
   7  -9   7   16.05    1.06
   7   9   7   14.07    1.01
  -7   9  -7   15.08    1.32
  -7   9  -7   14.95    0.96
   9  -9   7   82.97    2.85
  -9  -9  -7   80.31    2.82
  -9  -9  -7   80.16    2.95
   9  -9   7   85.68    3.11
  -9  -9  -7   84.36    2.91
  -9   9  -7   81.03    3.49
  -9   9  -7   79.51    3.06
   9   9   7   83.85    3.12
 -11  -9  -7   18.12    1.07
 -11  -9  -7   19.22    1.18
  11  -9   7   18.60    1.38
 -11  -9  -7   18.39    1.10
 -11   9  -7   18.33    1.67
 -11   9  -7   17.84    1.18
  11   9   7   17.45    1.29
 -13  -9  -7    1.66    0.51
 -13  -9  -7    1.37    0.54
 -13  -9  -7    1.16    0.57
 -13   9  -7    1.31    0.90
 -15  -9  -7    3.68    0.82
 -15  -9  -7    3.09    0.65
 -15  -9  -7    2.92    0.78
 -15   9  -7    3.20    0.74
 -15   9  -7    5.28    1.29
 -17  -9  -7    3.63    1.12
 -17  -9  -7    2.94    0.77
 -17  -9  -7    2.55    0.91
 -17   9  -7    2.74    1.37
 -17   9  -7    3.68    0.94
 -18 -10   7    3.35    2.01
 -18 -10   7    1.31    1.92
 -18 -10   7    0.27    0.87
 -18  10   7    1.22    0.76
  18  10  -7    2.34    1.23
 -18  10   7    2.44    1.99
 -16 -10   7    2.27    1.62
 -16 -10   7    1.94    0.83
 -16 -10   7    1.04    1.40
 -16  10   7    0.52    1.49
  16  10  -7    1.48    0.75
 -16  10   7    1.07    0.82
 -14 -10   7    1.43    1.16
 -14 -10   7    0.45    0.59
 -14 -10   7    2.00    1.35
  14  10  -7    0.64    0.61
 -14  10   7   -1.40    1.57
 -12 -10   7   14.86    1.56
 -12 -10   7   16.16    1.89
  12  10  -7   15.92    2.21
 -12  10   7   17.06    1.98
 -10 -10   7    2.15    0.90
 -10  10   7    3.04    0.66
 -10  10   7    3.26    0.95
  10  10  -7    3.93    1.10
  10  10  -7    4.16    0.64
  -8 -10   7    0.87    0.69
  -8 -10   7    0.48    0.72
   8 -10  -7    1.06    0.36
  -8  10   7    0.19    0.45
   8  10  -7    0.34    0.75
  -8  10   7   -0.62    0.61
   8  10  -7    0.31    0.35
  -6 -10   7   -0.35    0.24
   6 -10  -7    0.44    0.29
  -6 -10   7    0.65    0.59
   6 -10  -7    0.51    0.29
  -6 -10   7   -0.53    0.42
  -6  10   7    0.21    0.48
   6  10  -7    0.22    0.30
  -6  10   7    1.01    0.39
   6  10  -7   -0.46    0.54
   4 -10  -7    0.38    0.26
  -4 -10   7    1.11    0.61
  -4 -10   7    0.37    0.26
  -4 -10   7    0.49    0.44
   4 -10  -7    0.48    0.29
   4  10  -7    0.64    0.34
  -4  10   7    0.04    0.39
   4  10  -7    0.78    0.66
  -4  10   7    0.89    0.20
  -4  10   7    0.77    0.29
  -4  10   7    0.53    0.35
   2 -10  -7   22.71    1.08
  -2 -10   7   23.21    1.04
  -2 -10   7   22.19    1.51
   2 -10  -7   21.74    1.03
  -2 -10   7   22.69    1.40
  -2  10   7   19.07    1.50
  -2  10   7   21.51    1.13
   2  10  -7   21.98    1.53
  -2  10   7   22.24    0.93
   2  10  -7   22.58    1.20
   0 -10   7    0.25    0.46
   0 -10  -7    0.46    0.26
   0 -10  -7    0.14    0.26
   0 -10   7    0.80    0.47
   0 -10   7    0.33    0.21
   0  10   7    0.60    0.57
   0  10  -7    0.30    0.27
   0  10   7    0.56    0.47
   0  10  -7    0.35    0.50
   2 -10   7   11.82    0.98
   2 -10   7   14.01    1.17
   2 -10   7   12.16    0.70
  -2 -10  -7   10.42    0.68
  -2 -10  -7   12.26    0.77
   2  10   7   12.22    1.14
  -2  10  -7   12.04    1.19
  -2  10  -7   11.72    0.85
   2  10   7   10.82    0.80
  -4 -10  -7    3.93    0.50
   4 -10   7    4.26    0.47
   4 -10   7    2.99    0.53
  -4 -10  -7    5.25    0.55
  -4  10  -7    4.54    0.59
  -4  10  -7    6.04    0.89
   4  10   7    3.37    0.51
  -6 -10  -7    1.29    0.33
  -6 -10  -7    0.92    0.33
   6 -10   7    1.30    0.46
   6 -10   7    0.87    0.29
  -6 -10  -7    1.18    0.32
  -6  10  -7    1.23    0.38
   6  10   7    1.26    0.42
  -6  10  -7    1.43    0.64
   8 -10   7    1.26    0.36
  -8 -10  -7    2.19    0.43
   8 -10   7    1.90    0.56
  -8 -10  -7    1.97    0.43
  -8 -10  -7    1.70    0.41
  -8  10  -7    1.55    0.44
  -8  10  -7    2.79    0.79
   8  10   7    1.35    0.48
  10 -10   7    0.10    0.32
 -10 -10  -7    0.73    0.44
 -10 -10  -7    1.07    0.40
 -10 -10  -7    0.16    0.35
  10 -10   7    0.63    0.57
 -10  10  -7    0.46    0.39
  10  10   7    0.92    0.52
 -10  10  -7   -0.99    0.61
 -12 -10  -7    3.93    0.69
 -12 -10  -7    3.64    0.61
 -12 -10  -7    3.72    0.60
 -12  10  -7    2.64    0.94
 -12  10  -7    2.84    0.94
 -14 -10  -7    7.31    0.94
 -14 -10  -7    9.09    1.03
 -14 -10  -7    8.54    1.24
 -14  10  -7    8.28    1.18
 -14  10  -7    9.35    1.49
 -16 -10  -7    0.72    0.62
 -16 -10  -7    0.82    0.76
 -16 -10  -7    1.61    0.86
 -16  10  -7    0.43    0.83
 -16  10  -7    0.94    1.20
 -17 -11   7   14.89    1.77
 -17 -11   7   18.20    2.44
 -17  11   7   13.44    2.39
  17  11  -7   12.53    1.68
 -15 -11   7   10.59    1.40
 -15 -11   7    7.68    1.64
  15  11  -7    6.29    1.03
 -15  11   7    6.20    1.74
 -13 -11   7   16.14    2.16
  13  11  -7   15.85    1.39
 -13  11   7   16.53    2.03
 -11 -11   7    9.15    1.41
 -11  11   7    7.71    1.13
 -11  11   7    8.81    1.40
  11  11  -7    7.60    1.41
  11  11  -7    7.73    1.06
  -9 -11   7   20.34    1.15
   9 -11  -7   21.39    1.19
  -9 -11   7   20.68    1.84
  -9 -11   7   19.01    1.48
  -9  11   7   20.81    1.31
  -9  11   7   17.43    1.75
   9  11  -7   20.57    2.00
   9  11  -7   19.36    1.31
  -7 -11   7    2.10    0.62
   7 -11  -7    1.51    0.41
   7 -11  -7    1.97    0.41
  -7 -11   7    1.91    0.81
  -7 -11   7    1.42    0.39
   7  11  -7    2.02    0.50
  -7  11   7    2.11    0.52
  -7  11   7    0.91    0.69
   7  11  -7    2.63    0.84
  -5 -11   7    2.14    0.68
  -5 -11   7    2.48    0.42
  -5 -11   7    1.88    0.54
   5 -11  -7    1.34    0.37
   5 -11  -7    1.57    0.38
  -5  11   7    2.66    0.64
   5  11  -7    1.70    0.44
   5  11  -7    1.47    0.78
  -5  11   7    1.59    0.47
  -3 -11   7    0.85    0.64
  -3 -11   7    0.60    0.53
   3 -11  -7    0.57    0.31
   3 -11  -7    0.73    0.30
  -3 -11   7    1.45    0.31
  -3  11   7    0.55    0.36
   3  11  -7    1.14    0.38
  -3  11   7    0.53    0.48
  -3  11   7    0.90    0.39
  -3  11   7    0.47    0.23
   3  11  -7    0.18    0.62
   1 -11  -7   14.94    0.85
  -1 -11   7   12.84    1.25
  -1 -11   7   14.34    0.94
  -1 -11   7   13.89    0.81
   1 -11  -7   14.55    0.87
   1  11  -7   13.58    0.97
   1  11  -7   16.80    1.39
  -1  11   7   12.54    1.04
  -1  11   7   13.02    0.84
   1 -11   7   17.09    1.37
   1 -11   7   17.14    1.00
  -1 -11  -7   16.43    0.96
   1 -11   7   15.65    0.88
  -1 -11  -7   16.96    0.90
   1  11   7   16.65    0.96
  -1  11  -7   17.15    1.40
   1  11   7   15.77    1.28
  -1  11  -7   16.87    1.05
  -3 -11  -7    4.65    0.57
   3 -11   7    4.90    0.54
  -3 -11  -7    4.94    0.57
  -3  11  -7    4.30    0.64
  -3  11  -7    4.66    0.82
   3  11   7    4.31    0.56
   5 -11   7   11.19    0.91
   5 -11   7    9.76    0.71
  -5 -11  -7    9.32    0.73
  -5 -11  -7    9.78    0.78
   5  11   7   10.74    0.86
  -5  11  -7   11.54    0.89
  -5  11  -7   12.37    1.30
  -7 -11  -7    5.23    0.60
  -7 -11  -7    4.76    0.67
   7 -11   7    6.10    0.63
  -7 -11  -7    4.90    0.65
   7 -11   7    6.04    0.86
  -7  11  -7    4.55    0.93
  -7  11  -7    5.66    0.74
   7  11   7    5.73    0.78
  -9 -11  -7   26.93    1.31
   9 -11   7   25.06    1.51
  -9 -11  -7   25.97    1.30
   9 -11   7   26.44    1.27
  -9 -11  -7   24.85    1.35
  -9  11  -7   26.01    1.94
   9  11   7   27.07    1.47
  -9  11  -7   25.84    1.45
 -11 -11  -7    1.18    0.57
 -11 -11  -7    1.94    0.55
 -11 -11  -7    1.08    0.47
 -11  11  -7    2.05    0.86
 -11  11  -7    2.35    0.98
 -13 -11  -7    0.62    0.51
 -13 -11  -7    1.41    0.71
 -13  11  -7    1.05    0.96
 -13  11  -7    0.70    0.61
 -15 -11  -7   12.42    1.41
 -15 -11  -7   11.10    1.24
 -15 -11  -7   12.75    1.54
 -15  11  -7   12.32    1.49
 -15  11  -7   10.61    1.73
 -16 -12   7    1.80    1.82
 -16  12   7    2.84    1.88
  16  12  -7    0.65    0.85
 -14 -12   7    4.74    1.56
 -14  12   7    6.15    1.63
  14  12  -7    6.12    0.98
 -12 -12   7   17.90    1.27
 -12 -12   7   19.41    2.31
 -12  12   7   18.80    2.33
  12  12  -7   18.88    2.69
  12  12  -7   16.75    1.41
 -10 -12   7   88.50    3.59
 -10 -12   7   85.09    3.20
 -10 -12   7   87.26    3.93
  10  12  -7   82.22    3.37
 -10  12   7   77.55    3.82
  10  12  -7   90.13    4.14
  -8 -12   7    0.13    0.77
  -8 -12   7    0.45    0.69
   8 -12  -7    0.51    0.41
  -8 -12   7    0.23    0.39
  -8  12   7   -0.04    0.76
   8  12  -7    1.31    0.95
  -8  12   7   -0.14    0.52
   8  12  -7    0.64    0.45
  -6 -12   7    2.23    0.66
   6 -12  -7    1.72    0.43
   6 -12  -7    1.48    0.42
  -6 -12   7    2.09    0.42
  -6 -12   7    1.55    0.77
   6  12  -7    1.32    0.47
  -6  12   7    1.49    0.60
   6  12  -7    2.86    0.85
  -6  12   7    1.51    0.69
  -4 -12   7    8.25    1.29
  -4 -12   7    9.96    0.77
   4 -12  -7   10.06    0.85
   4 -12  -7    9.50    0.80
   4  12  -7   11.07    0.95
  -4  12   7   10.49    0.92
  -4  12   7    9.68    0.84
  -4  12   7   10.86    0.61
   4  12  -7   10.86    1.44
  -4  12   7   10.58    0.81
  -2 -12   7   41.27    1.72
  -2 -12   7   42.59    2.27
   2 -12  -7   41.75    1.79
  -2 -12   7   43.07    1.70
   2 -12  -7   43.38    1.73
  -2  12   7   40.22    1.60
  -2  12   7   42.56    1.64
   2  12  -7   44.54    2.34
  -2  12   7   39.01    1.88
   2  12  -7   43.32    1.94
   0 -12  -7    1.90    0.40
   0 -12  -7    1.84    0.40
   0 -12   7    2.43    0.41
   0 -12   7    0.93    0.60
   0 -12   7    1.37    0.46
   0  12  -7    0.82    0.62
   0  12   7    1.25    0.81
   0  12  -7    1.53    0.44
   0  12   7    1.13    0.38
   2 -12   7    4.26    0.53
  -2 -12  -7    2.86    0.45
   2 -12   7    3.64    0.61
  -2 -12  -7    3.71    0.49
  -2  12  -7    2.62    0.82
   2  12   7    3.99    0.50
  -2  12  -7    5.09    0.71
   4 -12   7    1.86    0.37
   4 -12   7    1.03    0.66
  -4 -12  -7    2.23    0.45
  -4 -12  -7    1.62    0.42
  -4  12  -7    1.06    0.67
  -4  12  -7    1.65    0.44
   4  12   7    1.73    0.66
   6 -12   7  112.70    3.76
   6 -12   7  107.12    3.76
  -6 -12  -7  110.62    3.75
  -6 -12  -7  108.56    3.86
  -6  12  -7  113.44    4.00
  -6  12  -7  109.28    4.43
   6  12   7  115.13    3.81
  -8 -12  -7   28.97    1.81
  -8 -12  -7   35.09    1.53
   8 -12   7   34.57    1.52
  -8  12  -7   31.84    2.28
  -8  12  -7   32.91    1.70
  10 -12   7   27.62    1.39
 -10 -12  -7   27.08    1.44
 -10 -12  -7   28.45    1.45
 -10 -12  -7   24.07    1.44
 -10  12  -7   28.01    2.09
 -10  12  -7   22.10    1.90
 -12 -12  -7   21.29    1.40
 -12 -12  -7   18.43    1.32
 -12 -12  -7   19.86    1.47
 -12  12  -7   18.63    1.50
 -12  12  -7   16.68    2.01
 -14 -12  -7    7.47    1.06
 -14 -12  -7    7.88    1.00
 -14 -12  -7    9.48    1.18
 -14  12  -7    5.09    0.94
 -14  12  -7    4.44    1.35
 -16 -12  -7    6.69    0.97
 -16 -12  -7    6.17    1.32
 -16  12  -7    5.84    1.10
  16  12   7    5.70    0.97
 -15 -13   7   63.49    4.21
 -15 -13   7   67.55    2.90
  15  13  -7   66.68    3.14
 -15  13   7   66.17    4.41
 -13 -13   7    1.60    1.47
 -13 -13   7    3.03    0.69
  13  13  -7    1.84    0.79
 -13  13   7    2.15    1.51
 -11 -13   7    0.00    1.17
 -11 -13   7    0.25    0.50
  11  13  -7    0.32    0.62
  11  13  -7   -0.67    1.45
 -11  13   7    1.80    1.23
  -9 -13   7    6.87    1.28
   9 -13  -7    9.26    0.98
  -9 -13   7    6.99    0.92
   9  13  -7    9.36    1.49
  -9  13   7    8.23    1.31
   9  13  -7    8.24    1.08
  -7 -13   7   29.64    2.16
   7 -13  -7   30.16    1.50
  -7 -13   7   26.47    1.46
  -7  13   7   29.05    1.91
   7  13  -7   27.76    2.32
   7  13  -7   26.25    1.59
   5 -13  -7   64.41    2.54
   5 -13  -7   63.73    2.46
  -5 -13   7   64.37    3.21
  -5 -13   7   63.54    2.47
   5  13  -7   65.01    3.23
  -5  13   7   61.75    2.25
   5  13  -7   64.14    2.69
  -3 -13   7   12.32    1.46
  -3 -13   7   11.79    0.88
   3 -13  -7   12.49    0.91
   3 -13  -7   11.79    0.95
  -3  13   7   11.75    0.76
   3  13  -7    9.37    1.27
  -3  13   7   10.52    1.10
   3  13  -7   12.99    1.06
   1 -13  -7   51.53    2.11
  -1 -13   7   50.87    2.03
  -1 -13   7   51.10    2.60
   1 -13  -7   50.04    2.01
   1  13  -7   50.18    2.21
   1  13  -7   53.33    2.73
  -1  13   7   48.99    1.98
   1 -13   7  157.34    5.77
  -1 -13  -7  157.21    5.13
  -1 -13  -7  159.08    5.25
   1 -13   7  160.00    5.16
  -1  13  -7  157.86    5.82
  -1  13  -7  153.25    5.35
   1  13   7  152.89    5.23
   3 -13   7   13.61    0.92
  -3 -13  -7   13.95    0.96
  -3 -13  -7   13.96    1.01
  -3  13  -7   15.20    1.57
  -3  13  -7   14.85    1.09
   5 -13   7   12.68    0.88
  -5 -13  -7    9.99    0.90
  -5  13  -7   12.01    1.06
  -5  13  -7   14.47    1.59
  -7 -13  -7   15.64    1.08
   7 -13   7   15.63    1.04
  -7 -13  -7   16.65    1.08
  -7  13  -7   12.46    1.63
  -7  13  -7   15.68    1.20
  -9 -13  -7   11.53    1.08
  -9 -13  -7   10.94    1.03
  -9  13  -7    9.95    1.42
  -9  13  -7    8.56    1.12
 -11 -13  -7   35.15    1.82
 -11 -13  -7   37.11    1.81
 -11  13  -7   38.22    1.99
 -11  13  -7   29.10    2.48
 -13 -13  -7    5.60    0.86
 -13 -13  -7    7.02    0.96
 -13  13  -7    6.51    1.07
 -13  13  -7    8.56    1.51
 -14 -14   7    0.25    0.72
 -14 -14   7   -1.52    1.73
  14  14  -7    0.55    0.89
 -12 -14   7   27.56    2.98
 -12 -14   7   26.77    1.69
  12  14  -7   28.21    1.92
 -10 -14   7   73.37    3.82
 -10 -14   7   75.09    2.93
  10  14  -7   74.26    4.32
  10  14  -7   66.53    3.08
  -8 -14   7   69.07    5.07
  -8 -14   7   73.66    2.87
   8 -14  -7   72.70    2.86
   8  14  -7   72.75    3.08
   8  14  -7   72.07    3.93
   6 -14  -7    2.90    0.61
  -6 -14   7    3.51    1.14
   6 -14  -7    3.04    0.60
  -6 -14   7    3.36    0.61
   6  14  -7    3.35    0.69
   6  14  -7    3.69    1.23
   4 -14  -7   59.34    2.43
  -4 -14   7   58.69    2.97
  -4 -14   7   55.18    2.44
   4 -14  -7   61.31    2.37
  -4  14   7   59.54    2.10
   4  14  -7   58.46    3.14
   4  14  -7   56.11    2.56
   2 -14  -7  108.33    3.79
  -2 -14   7  113.64    4.45
  -2 -14   7  109.11    3.80
   2 -14  -7  109.41    4.03
   2  14  -7  103.97    4.49
   2  14  -7  104.82    4.74
  -2  14   7  108.59    3.70
   0 -14   7   54.63    2.80
   0 -14   7   52.35    2.16
   0 -14  -7   52.81    2.35
   0 -14  -7   56.18    2.20
   0  14  -7   53.53    2.38
   0  14  -7   57.88    2.96
   0  14   7   50.35    2.26
  -2 -14  -7    1.16    0.46
  -2 -14  -7    0.73    0.45
   2 -14   7    1.09    0.41
   2  14   7   -0.15    0.40
   2  14   7   -0.05    0.48
  -2  14  -7    0.03    0.48
  -2  14  -7   -0.18    0.77
   4 -14   7   97.59    3.34
  -4 -14  -7   95.86    3.33
  -4 -14  -7   90.69    3.39
   4  14   7   99.98    3.34
  -4  14  -7   92.59    4.05
  -4  14  -7   83.28    3.90
   4  14   7   85.21    3.52
  -6 -14  -7   82.31    3.05
  -6 -14  -7   80.57    3.11
  -6  14  -7   83.12    3.27
   6  14   7   84.21    3.12
  -6  14  -7   80.61    3.77
  -8 -14  -7   37.47    1.80
   8 -14   7   36.00    1.75
  -8 -14  -7   36.19    1.81
  -8  14  -7   37.37    1.98
  -8  14  -7   35.17    2.43
 -10 -14  -7    0.94    0.65
 -10 -14  -7    0.63    0.57
  10 -14   7   -0.04    0.55
 -10  14  -7    0.08    0.68
 -10  14  -7    0.59    0.99
  10  14   7   -0.95    0.60
 -12 -14  -7   39.37    2.05
 -12 -14  -7   43.57    2.13
 -12  14  -7   43.39    2.35
  12  14   7   40.15    2.19
  12  14   7   40.38    2.78
 -12  14  -7   37.95    2.87
 -13 -15   7   47.16    2.35
  13  15  -7   42.55    2.60
 -11 -15   7    3.62    0.77
 -11 -15   7    4.56    1.70
  11  15  -7    7.00    2.15
  11  15  -7    4.08    0.99
  -9 -15   7   13.67    1.79
  -9 -15   7   12.66    1.18
   9 -15  -7   12.12    1.24
   9  15  -7   10.32    1.34
   9  15  -7    9.83    1.89
  -7 -15   7  102.01    4.53
  -7 -15   7   99.17    3.71
   7 -15  -7  100.61    3.71
   7  15  -7  100.08    3.97
   7  15  -7   99.61    4.74
   5 -15  -7   74.65    2.92
   5 -15  -7   77.90    3.03
  -5 -15   7   75.55    2.94
  -5 -15   7   74.27    3.64
   5  15  -7   76.49    3.18
   5  15  -7   75.92    3.86
  -5  15   7   74.50    2.58
   3 -15  -7    0.41    0.49
   3 -15  -7    0.19    0.51
  -3 -15   7    0.95    1.81
  -3 -15   7    0.52    0.48
   3  15  -7   -0.02    1.00
  -3  15   7    0.03    0.41
   3  15  -7    0.35    0.60
   1 -15  -7   34.24    1.75
  -1 -15   7   30.58    1.62
   1 -15  -7   33.59    1.79
   1  15  -7   36.49    1.91
  -1  15   7   33.74    1.63
   1  15  -7   34.93    2.49
  -1 -15  -7  115.27    4.69
  -1 -15  -7  124.57    4.34
   1 -15   7  125.76    4.25
  -1  15  -7  123.50    5.03
   1  15   7  116.56    4.29
  -1  15  -7  123.19    4.46
  -3 -15  -7   79.53    3.09
   3 -15   7   80.01    3.02
  -3 -15  -7   81.93    3.09
  -3  15  -7   78.53    3.77
   3  15   7   74.36    3.19
  -3  15  -7   79.42    3.23
   3  15   7   89.20    3.63
  -5 -15  -7    3.60    0.69
   5 -15   7    5.39    0.72
  -5 -15  -7    3.25    0.64
   5  15   7    3.71    0.82
  -5  15  -7    4.08    0.78
   5  15   7    4.01    0.68
  -5  15  -7    3.52    1.12
  -7 -15  -7   27.41    1.57
   7 -15   7   25.46    1.51
  -7 -15  -7   27.36    1.61
  -7  15  -7   22.34    2.18
   7  15   7   29.02    1.64
  -7  15  -7   28.44    1.73
   7  15   7   27.21    1.92
  -9 -15  -7   25.68    1.63
  -9 -15  -7   24.64    1.59
   9 -15   7   24.70    1.56
  -9  15  -7   20.08    2.31
  -9  15  -7   25.49    1.80
   9  15   7   26.52    1.69
   9  15   7   23.23    1.99
  11 -15   7   79.97    3.10
 -11 -15  -7   78.23    3.13
 -11 -15  -7   70.59    3.08
  11  15   7   77.48    3.22
 -11  15  -7   70.40    3.93
 -11  15  -7   82.46    3.37
  11  15   7   75.38    3.68
 -10 -16   7  104.51    3.99
  10  16  -7  103.91    4.24
  10  16  -7  106.57    5.43
   8 -16  -7   24.48    1.67
  -8 -16   7   27.30    1.64
  -8 -16   7   27.02    2.77
   8  16  -7   25.59    1.92
   8  16  -7   21.50    3.03
  -6 -16   7   30.51    1.76
   6 -16  -7   30.49    1.76
  -6 -16   7   35.81    2.74
   6  16  -7   29.30    1.97
   6  16  -7   32.52    2.97
  -4 -16   7   74.81    3.75
   4 -16  -7   73.60    3.05
  -4 -16   7   75.91    2.97
   4 -16  -7   73.82    2.98
  -4  16   7   75.52    2.69
   4  16  -7   75.09    3.25
   4  16  -7   77.65    3.96
  -2 -16   7   11.67    1.11
   2 -16  -7    9.88    1.15
   2 -16  -7   11.96    1.20
   2  16  -7   11.91    1.71
   2  16  -7   10.44    1.31
  -2  16   7   10.96    1.04
   0 -16  -7   35.86    1.88
   0 -16   7   33.54    1.75
   0 -16  -7   34.79    1.81
   0  16  -7   37.89    2.02
   0  16   7   36.75    1.85
   0  16  -7   36.32    2.62
  -2 -16  -7    5.96    0.86
  -2 -16  -7    6.41    0.86
   2 -16   7    5.90    0.77
  -2  16  -7    4.54    0.87
  -2  16  -7    6.48    1.40
   2  16   7    5.31    0.87
  -4 -16  -7   50.76    2.41
   4 -16   7   57.30    2.38
  -4 -16  -7   56.88    2.39
   4  16   7   53.24    2.57
  -4  16  -7   57.19    2.62
  -4  16  -7   55.59    3.23
  -6 -16  -7  137.23    4.76
  -6 -16  -7  132.11    4.84
   6 -16   7  139.17    4.77
   6  16   7  143.63    4.88
  -6  16  -7  139.91    5.01
   6  16   7  129.83    5.10
  -6  16  -7  131.68    5.57
   8 -16   7   33.89    1.81
  -8 -16  -7   29.50    1.80
  -8 -16  -7   28.12    1.87
   8  16   7   28.83    1.83
  -8  16  -7   29.78    2.04
  -8  16  -7   36.10    2.67
   8  16   7   30.30    2.17
  10 -16   7    5.70    0.92
 -10 -16  -7    8.37    1.09
 -10 -16  -7    5.37    0.91
  10  16   7    3.93    1.20
 -10  16  -7    6.03    1.10
 -10  16  -7    6.99    1.54
  10  16   7    4.23    0.98
  -9 -17   7   40.47    2.17
   7 -17  -7   36.06    2.04
  -7 -17   7   39.17    2.03
   7  17  -7   36.96    2.28
   7  17  -7   37.75    3.55
  -5 -17   7   28.58    2.79
  -5 -17   7   24.05    1.62
   5 -17  -7   26.14    1.71
   5  17  -7   26.52    2.94
   5  17  -7   24.50    1.96
   3 -17  -7   10.41    1.26
  -3 -17   7    8.89    1.01
   3 -17  -7    9.54    1.27
   3  17  -7    7.57    1.09
  -3  17   7   11.25    1.11
   3  17  -7   10.02    1.80
   1 -17  -7   47.59    2.33
   1 -17  -7   47.31    2.28
  -1 -17   7   49.61    2.24
   1  17  -7   48.76    3.21
   1  17  -7   49.94    2.50
  -1  17   7   45.50    2.19
   1 -17   7   69.84    2.82
  -1 -17  -7   69.42    2.93
  -1 -17  -7   67.66    2.83
  -1  17  -7   69.41    3.84
  -1  17  -7   68.52    3.06
   1  17   7   66.73    2.90
   3 -17   7   30.58    1.73
  -3 -17  -7   30.57    1.83
  -3 -17  -7   32.36    1.89
  -3  17  -7   26.57    2.74
   3  17   7   30.22    1.91
  -3  17  -7   30.84    2.06
  -5 -17  -7    1.25    0.66
  -5 -17  -7    0.12    0.79
   5 -17   7    1.20    0.66
  -5  17  -7   -0.87    0.77
   5  17   7    0.19    0.79
  -5  17  -7    0.03    1.20
  -7 -17  -7    6.84    1.00
  -7  17  -7    6.74    1.60
  -7  17  -7   10.30    1.19
   7  17   7    7.91    1.24
  -4 -18   7   17.38    1.54
   4 -18  -7   14.33    1.57
   4  18  -7   18.10    1.79
   4  18  -7   20.12    2.39
  -4  18   7   19.08    1.28
   2 -18  -7   47.12    2.39
   2 -18  -7   43.92    2.27
  -2 -18   7   47.47    2.25
   2  18  -7   37.87    3.53
  -2  18   7   48.93    2.14
   2  18  -7   42.23    2.49
   0 -18  -7   17.60    1.55
   0 -18   7   15.51    1.41
   0 -18  -7   13.59    1.52
   0  18  -7   13.44    1.90
   0  18  -7   12.93    1.62
   0  18   7   14.88    1.48
   2 -18   7    1.32    0.70
  -2 -18  -7    2.10    0.83
  -2 -18  -7    1.91    0.77
  -2  18  -7    0.88    1.49
  -2  18  -7   -0.05    0.86
   2  18   7    2.40    0.84
  -4 -18  -7   12.57    1.60
   4 -18   7   13.24    1.45
  -4 -18  -7   16.11    1.55
  -4  18  -7   16.81    2.56
  -4  18  -7   15.47    1.81
   4  18   7   13.97    1.72
 -20   0   8   27.86    2.61
 -20   0   8   33.41    2.26
 -20   0   8   34.04    3.29
 -18   0   8   51.60    2.42
 -18   0   8   42.31    2.70
 -18   0   8   45.49    3.22
 -16   0   8    1.59    0.83
 -16   0   8    2.29    0.61
 -16   0   8    1.67    1.08
 -14   0   8   76.12    2.87
 -14   0   8   70.65    3.17
 -14   0   8   76.67    3.65
 -12   0   8  144.38    4.82
 -12   0   8  145.78    5.58
 -12   0   8  144.81    5.14
  10   0  -8  198.63    5.98
  10   0  -8  205.25    6.24
 -10   0   8  202.92    6.34
 -10   0   8  200.15    6.59
 -10   0   8  192.75    6.96
  10   0  -8  194.06    6.03
   8   0  -8    3.42    0.27
  -8   0   8    2.92    0.42
   8   0  -8    3.76    0.33
  -8   0   8    1.93    0.49
   8   0  -8    3.41    0.47
  -8   0   8    3.31    0.48
  -8   0   8    3.92    0.56
  -6   0   8  282.51    9.53
   6   0  -8  311.90    8.90
   6   0  -8  277.70    8.88
  -6   0   8  302.97    9.18
  -6   0   8  273.50    9.03
   6   0  -8  311.54    9.08
  -6   0   8  313.51    9.07
  -4   0   8   81.60    2.52
   4   0  -8   77.20    2.54
   4   0  -8   80.63    2.45
  -4   0   8   75.24    2.91
   4   0  -8   85.86    2.74
  -4   0   8   77.36    3.02
  -4   0   8   80.62    2.78
   4   0  -8   82.23    2.56
   2   0  -8  100.38    3.11
  -2   0   8   98.02    3.32
  -2   0   8  100.57    2.98
  -2   0   8   94.64    3.42
   2   0  -8   96.84    3.10
   2   0  -8   97.45    3.02
   0   0   8    9.21    0.69
   0   0   8    8.49    0.71
   0   0  -8    7.43    0.40
   0   0  -8    7.59    0.46
   0   0  -8    7.85    0.63
   0   0  -8    7.51    0.50
   0   0   8    6.98    0.64
  -2   0  -8   37.69    1.64
   2   0   8   39.37    1.70
  -2   0  -8   38.54    1.45
   2   0   8   40.36    1.66
   2   0   8   42.28    1.72
   4   0   8  212.20    7.01
  -4   0  -8  214.44    7.00
   4   0   8  213.09    6.94
  -4   0  -8  214.27    6.75
   4   0   8  232.60    7.08
   6   0   8   75.12    2.85
  -6   0  -8   72.55    2.88
  -6   0  -8   76.53    2.62
   8   0   8   90.00    3.38
  -8   0  -8   89.78    3.48
  -8   0  -8   92.02    2.80
  -8   0  -8   87.61    3.12
 -10   0  -8   89.81    3.24
 -10   0  -8   91.68    3.69
  10   0   8   92.46    3.49
 -12   0  -8  272.32    9.30
  12   0   8  274.54    9.07
 -12   0  -8  280.87    8.82
 -14   0  -8   17.00    1.92
  14   0   8   17.45    1.36
 -14   0  -8   14.02    1.13
 -16   0  -8    6.49    1.49
  16   0   8    5.15    0.97
 -16   0  -8    5.67    0.85
 -18   0  -8   25.11    3.07
 -18   0  -8   22.15    1.72
 -20   0  -8   62.38    5.04
 -20   0  -8   61.07    3.02
 -21  -1   8   24.10    2.18
 -21  -1   8   23.20    2.60
 -21  -1   8   17.15    2.46
 -21   1   8   18.77    2.47
 -21   1   8   20.90    3.25
 -19  -1   8   20.83    2.30
 -19  -1   8   25.19    2.78
 -19  -1   8   25.38    1.88
 -19   1   8   23.48    2.77
 -19   1   8   23.41    1.96
 -19   1   8   21.82    2.15
 -17  -1   8  138.98    5.53
 -17  -1   8  145.23    5.05
 -17  -1   8  144.29    6.00
 -17   1   8  153.11    5.04
 -17   1   8  126.85    5.31
 -17   1   8  126.13    5.86
 -15  -1   8   98.71    4.49
 -15  -1   8  101.27    3.72
 -15  -1   8  101.58    4.14
  15   1  -8   99.00    3.18
 -15   1   8   96.01    3.99
 -15   1   8   99.23    4.54
 -15   1   8  105.83    3.71
 -13  -1   8    0.62    0.72
 -13  -1   8    0.92    0.40
 -13  -1   8    1.47    0.55
  13   1  -8    0.14    0.25
 -13   1   8    0.69    0.37
 -13   1   8    1.15    0.51
 -13   1   8   -0.04    0.62
 -11  -1   8   33.16    1.75
 -11  -1   8   34.33    1.50
 -11  -1   8   34.30    2.04
  11   1  -8   34.61    1.62
 -11   1   8   33.06    1.45
  11   1  -8   30.97    1.48
 -11   1   8   33.56    1.68
 -11   1   8   31.64    2.02
  11   1  -8   32.31    1.24
 -11   1   8   38.11    1.15
   9  -1  -8  126.64    3.96
  -9  -1   8  132.67    4.32
  -9  -1   8  124.65    4.42
  -9  -1   8  121.51    4.17
  -9  -1   8  125.89    4.75
  -9   1   8  118.20    4.70
  -9   1   8  119.91    4.11
   9   1  -8  131.62    4.00
   9   1  -8  134.36    4.24
  -9   1   8  135.26    3.86
  -9   1   8  125.12    4.33
  -9   1   8  127.79    4.21
  -7  -1   8  221.40    7.30
  -7  -1   8  242.74    7.24
  -7  -1   8  225.09    7.62
  -7  -1   8  209.55    7.10
   7  -1  -8  240.86    6.95
  -7   1   8  221.69    7.20
  -7   1   8  225.56    7.03
  -7   1   8  223.58    7.57
   7   1  -8  236.36    6.96
   7   1  -8  237.33    7.16
   7   1  -8  218.46    6.94
  -7   1   8  232.80    7.14
   5  -1  -8   34.54    1.25
  -5  -1   8   30.99    1.63
  -5  -1   8   29.62    1.47
   5  -1  -8   32.01    1.07
  -5  -1   8   32.20    1.40
  -5   1   8   31.84    1.14
   5   1  -8   37.14    1.64
   5   1  -8   31.68    1.18
  -5   1   8   31.43    1.59
  -5   1   8   33.75    1.33
   5   1  -8   33.52    1.22
  -5   1   8   30.74    1.48
  -3  -1   8   28.86    1.29
   3  -1  -8   30.70    1.19
   3  -1  -8   31.33    1.01
   3  -1  -8   29.33    1.00
   3  -1  -8   28.67    0.99
  -3  -1   8   27.22    1.35
  -3  -1   8   28.85    1.44
  -3   1   8   25.76    1.33
  -3   1   8   29.96    0.99
   3   1  -8   29.86    0.95
   3   1  -8   28.93    1.10
  -3   1   8   29.82    1.24
   3   1  -8   27.74    1.27
   3   1  -8   29.68    1.13
   1  -1  -8  501.73   16.14
   1  -1  -8  570.62   16.34
  -1  -1   8  528.68   16.53
   1  -1  -8  556.86   16.55
  -1  -1   8  548.23   16.46
  -1  -1   8  534.93   16.58
   1  -1  -8  560.43   16.16
   1  -1  -8  531.61   16.14
   1   1  -8  559.18   16.25
   1   1  -8  562.01   16.45
  -1   1   8  537.76   16.54
  -1   1   8  544.63   16.51
  -1   1   8  568.80   16.43
   1   1  -8  495.59   16.31
   1   1  -8  527.78   16.11
   1  -1   8  207.52    7.71
  -1  -1  -8  229.39    7.18
  -1  -1  -8  244.77    7.42
  -1  -1  -8  238.48    7.48
  -1  -1  -8  223.43    7.20
   1  -1   8  237.66    7.55
   1  -1   8  260.45    7.55
   1   1   8  249.77    7.49
  -1   1  -8  225.83    7.26
   1   1   8  243.11    7.56
   1   1   8  233.06    7.44
  -1   1  -8  244.22    7.51
  -3  -1  -8    6.78    0.80
   3  -1   8    9.05    0.85
   3  -1   8    7.17    0.64
  -3  -1  -8    6.83    0.48
  -3  -1  -8    6.62    0.67
  -3   1  -8    6.66    0.71
  -3   1  -8    7.16    0.50
   3   1   8    6.70    0.73
   3   1   8    6.48    0.55
   3   1   8    5.87    0.60
  -5  -1  -8   31.20    1.56
  -5  -1  -8   31.73    1.31
   5  -1   8   33.49    1.56
  -5   1  -8   35.22    1.62
   5   1   8   34.41    1.57
  -5   1  -8   32.32    1.34
   5   1   8   32.85    1.63
  -7  -1  -8   90.25    3.41
  -7  -1  -8   87.29    3.08
   7  -1   8   90.42    3.34
  -7  -1  -8   94.29    2.77
  -7   1  -8   90.78    3.11
  -7   1  -8   91.63    2.77
   7   1   8   85.42    3.31
  -7   1  -8   90.19    3.44
  -9  -1  -8  225.07    6.61
  -9  -1  -8  205.54    7.30
   9  -1   8  213.64    7.20
  -9  -1  -8  220.70    6.96
   9   1   8  219.91    7.22
  -9   1  -8  217.58    7.35
  -9   1  -8  222.54    6.61
  -9   1  -8  217.21    7.00
 -11  -1  -8   56.71    2.26
 -11  -1  -8   52.19    2.63
  11  -1   8   59.13    2.50
  11   1   8   55.43    2.46
 -11   1  -8   57.25    2.75
 -11   1  -8   57.77    2.27
 -13  -1  -8   38.34    1.84
  13  -1   8   39.89    2.05
 -13  -1  -8   39.74    2.47
 -13   1  -8   39.20    1.85
  13   1   8   39.52    2.05
 -13   1  -8   44.62    2.53
 -15  -1  -8  174.76    6.69
 -15   1  -8  179.52    6.72
  17  -1   8   78.32    3.49
 -17  -1  -8   89.24    4.41
 -17  -1  -8   82.29    3.35
 -17   1  -8   81.24    4.27
  17   1   8   81.52    3.52
 -17   1  -8   78.92    3.36
 -19  -1  -8    0.47    1.94
 -19  -1  -8    0.93    0.80
 -19   1  -8   -0.20    0.75
 -19   1  -8    0.46    1.73
 -20  -2   8   34.66    3.27
 -20  -2   8   34.00    2.88
 -20  -2   8   36.84    2.34
 -20   2   8   29.94    2.54
 -20   2   8   36.38    3.48
 -18  -2   8   34.82    2.58
 -18  -2   8   44.06    3.05
 -18   2   8   36.90    3.01
 -18   2   8   30.67    2.27
 -18   2   8   37.31    2.05
 -16  -2   8   -0.11    0.89
 -16  -2   8    1.04    0.57
 -16  -2   8    0.38    1.23
 -16   2   8   -0.04    1.04
 -16   2   8    0.57    1.04
  16   2  -8    0.30    0.39
 -16   2   8    0.61    0.55
 -14  -2   8   47.66    2.75
 -14  -2   8   48.59    2.53
 -14  -2   8   48.16    2.12
 -14   2   8   47.40    2.80
  14   2  -8   47.85    1.75
 -14   2   8   45.49    2.26
 -14   2   8   50.55    2.05
 -12  -2   8  182.69    6.66
 -12  -2   8  182.92    5.99
 -12  -2   8  182.02    6.34
 -12   2   8  183.32    6.72
 -12   2   8  178.76    6.11
  12   2  -8  179.55    5.67
 -12   2   8  184.89    5.87
 -10  -2   8   37.24    1.60
 -10  -2   8   36.88    2.09
 -10  -2   8   38.12    1.86
  10   2  -8   37.80    1.43
 -10   2   8   41.45    1.34
 -10   2   8   34.33    2.07
  10   2  -8   38.79    1.50
 -10   2   8   37.84    1.51
 -10   2   8   39.75    1.72
  10   2  -8   38.96    1.77
  -8  -2   8   29.69    1.74
  -8  -2   8   30.48    1.53
  -8  -2   8   29.19    1.32
  -8  -2   8   33.34    1.50
  -8   2   8   30.29    1.36
  -8   2   8   33.13    1.33
   8   2  -8   30.36    1.21
   8   2  -8   32.85    1.28
  -8   2   8   32.24    1.77
  -8   2   8   31.36    1.23
  -8   2   8   33.48    1.11
  -6  -2   8   33.88    1.47
   6  -2  -8   32.19    1.13
  -6  -2   8   31.66    1.33
  -6  -2   8   33.29    1.73
   6   2  -8   34.10    1.47
   6   2  -8   33.46    1.26
  -6   2   8   32.69    1.22
   6   2  -8   32.56    1.29
  -6   2   8   33.08    1.31
  -6   2   8   32.93    1.65
   4  -2  -8  133.78    4.20
  -4  -2   8  134.53    4.63
  -4  -2   8  137.55    4.54
   4  -2  -8  141.81    4.18
  -4  -2   8  133.84    4.78
  -4   2   8  140.60    4.21
  -4   2   8  134.48    4.38
  -4   2   8  128.91    4.69
  -4   2   8  138.77    4.64
   4   2  -8  141.90    4.54
   4   2  -8  143.36    4.35
   4   2  -8  136.25    4.33
  -2  -2   8   91.68    3.42
   2  -2  -8   95.98    3.33
   2  -2  -8   97.49    3.03
  -2  -2   8   92.94    3.32
   2  -2  -8   97.44    2.87
   2  -2  -8   92.91    2.95
  -2  -2   8   94.71    3.28
   2  -2  -8   92.47    2.86
  -2   2   8   90.73    3.31
   2   2  -8   93.69    3.08
  -2   2   8   89.57    3.28
   2   2  -8   93.73    3.07
   2   2  -8   96.52    3.28
  -2   2   8   97.73    2.88
   2   2  -8   94.02    2.89
  -2   2   8   95.08    3.16
   0  -2   8   15.69    0.99
   0  -2  -8   15.77    0.64
   0  -2  -8   15.09    0.61
   0  -2   8   16.32    0.95
   0  -2  -8   15.11    0.65
   0  -2  -8   14.66    0.94
   0  -2   8   14.99    0.50
   0  -2   8   14.31    0.90
   0  -2  -8   14.01    0.93
   0   2  -8   14.86    0.73
   0   2   8   14.59    0.90
   0   2   8   14.89    0.83
   0   2  -8   14.28    0.91
   0   2   8   14.82    0.85
   2  -2   8   91.10    3.33
  -2  -2  -8   92.20    2.99
  -2  -2  -8   89.24    2.99
   2  -2   8   97.62    3.35
   2  -2   8   93.12    3.32
  -2  -2  -8   97.16    3.22
   2   2   8   93.32    3.14
   2   2   8   86.92    3.28
  -2   2  -8   98.27    3.36
   2   2   8   97.84    3.29
  -2   2  -8   89.43    3.08
   4  -2   8  297.37    9.63
  -4  -2  -8  297.07    9.33
   4  -2   8  313.00    9.64
  -4  -2  -8  316.36    9.49
  -4  -2  -8  303.46    9.58
  -4   2  -8  314.48    9.70
   4   2   8  309.83    9.67
  -4   2  -8  294.68    9.40
   4   2   8  307.45    9.65
   6  -2   8  110.09    3.95
  -6  -2  -8  110.25    3.68
  -6  -2  -8  117.75    3.39
  -6  -2  -8  109.30    3.83
  -6  -2  -8  109.31    3.97
  -6  -2  -8  110.12    3.38
  -6   2  -8  112.93    3.75
   6   2   8  111.06    3.96
  -6   2  -8  110.98    4.05
   6   2   8  111.07    4.07
  -6   2  -8  118.53    3.41
  -8  -2  -8   10.54    0.71
   8  -2   8    9.28    0.89
  -8  -2  -8   10.75    0.53
  -8  -2  -8    9.73    1.04
  -8   2  -8    9.66    0.72
  -8   2  -8   10.99    1.11
  -8   2  -8   10.38    0.54
   8   2   8   10.29    0.90
 -10  -2  -8  108.09    3.83
  10  -2   8  111.92    4.10
  10   2   8  113.94    4.11
 -10   2  -8  115.12    4.32
 -10   2  -8  109.71    3.86
 -12  -2  -8   35.03    2.18
  12  -2   8   34.94    1.88
 -12  -2  -8   36.49    1.66
 -12   2  -8   32.73    2.14
 -12   2  -8   34.95    1.66
  12   2   8   33.60    1.86
 -14  -2  -8   35.69    2.48
  14  -2   8   39.65    2.05
 -14  -2  -8   36.53    1.82
  14   2   8   37.29    2.02
 -14   2  -8   33.50    2.48
 -14   2  -8   36.64    1.82
 -16  -2  -8    9.90    1.14
 -16  -2  -8   10.96    1.80
  16  -2   8   10.29    1.35
 -16   2  -8   10.51    1.11
  16   2   8    8.82    1.28
 -16   2  -8   11.87    1.71
 -18  -2  -8   11.28    2.41
 -18  -2  -8    8.53    1.12
 -18   2  -8    9.43    1.16
 -18   2  -8    9.65    1.94
 -20  -2  -8   65.62    3.13
 -20   2  -8   63.73    3.18
 -20   2  -8   70.25    4.57
 -21  -3   8   11.11    1.96
 -21  -3   8   12.51    2.34
 -21  -3   8   13.94    1.97
 -21   3   8    9.04    1.60
 -21   3   8   13.44    2.23
 -19  -3   8   11.34    1.56
 -19  -3   8   10.41    1.64
 -19  -3   8    7.48    1.74
 -19   3   8   12.33    1.74
 -19   3   8   14.29    2.21
 -17  -3   8   48.60    3.23
 -17  -3   8   55.07    2.54
 -17  -3   8   52.93    3.08
 -17   3   8   58.08    2.45
  17   3  -8   55.05    2.06
 -17   3   8   51.17    3.40
 -17   3   8   47.00    2.61
 -15  -3   8   65.47    3.21
 -15  -3   8   63.81    3.44
 -15  -3   8   70.10    2.77
  15   3  -8   66.33    2.37
 -15   3   8   69.09    2.67
 -15   3   8   63.60    3.54
 -15   3   8   61.14    2.83
 -13  -3   8    1.64    0.67
 -13  -3   8    1.64    0.69
 -13  -3   8    1.20    0.44
 -13   3   8    0.61    0.80
 -13   3   8    1.42    0.52
  13   3  -8    1.74    0.38
 -13   3   8    2.58    0.48
 -11  -3   8   30.91    1.47
 -11  -3   8   29.22    1.73
 -11  -3   8   28.24    1.93
 -11   3   8   30.94    1.34
 -11   3   8   32.46    1.52
  11   3  -8   30.64    1.29
 -11   3   8   33.85    2.05
  11   3  -8   33.98    1.76
  -9  -3   8   13.02    1.22
  -9  -3   8   11.74    1.04
  -9  -3   8   10.65    0.76
  -9  -3   8    9.60    0.95
   9   3  -8   12.59    1.02
   9   3  -8   10.67    0.66
  -9   3   8   11.13    1.14
  -9   3   8   10.68    0.75
  -9   3   8   11.39    0.62
  -9   3   8   11.44    0.64
  -7  -3   8   92.08    3.26
  -7  -3   8  105.96    3.47
  -7  -3   8   99.70    3.77
   7   3  -8   92.74    3.17
  -7   3   8   96.84    3.16
  -7   3   8   93.20    3.66
   7   3  -8   92.21    3.40
  -7   3   8   99.91    3.05
  -7   3   8   94.46    3.08
  -5  -3   8  153.63    4.94
  -5  -3   8  150.84    4.99
  -5  -3   8  149.70    5.21
   5  -3  -8  149.76    4.56
  -5   3   8  145.59    4.58
   5   3  -8  149.27    4.93
  -5   3   8  143.49    4.56
   5   3  -8  144.04    4.69
  -5   3   8  146.36    4.98
  -5   3   8  147.76    5.05
  -5   3   8  143.64    4.66
  -5   3   8  154.62    4.58
  -3  -3   8   38.65    1.63
  -3  -3   8   37.86    1.78
   3  -3  -8   37.50    1.29
  -3  -3   8   37.83    1.63
   3   3  -8   37.11    1.63
  -3   3   8   37.97    1.43
  -3   3   8   36.62    1.62
   3   3  -8   36.67    1.41
   3   3  -8   39.13    1.17
  -3   3   8   36.57    1.31
  -3   3   8   37.01    1.25
  -3   3   8   33.73    1.58
   3   3  -8   37.88    1.17
   1  -3  -8  221.18    6.67
  -1  -3   8  211.63    6.75
   1  -3  -8  223.35    6.43
  -1  -3   8  191.88    6.31
  -1  -3   8  210.25    6.91
  -1  -3   8  209.08    6.77
   1  -3  -8  207.01    6.42
  -1   3   8  208.24    6.77
   1   3  -8  208.09    6.76
   1   3  -8  207.87    6.54
  -1   3   8  213.01    6.61
  -1   3   8  217.80    6.30
  -1   3   8  205.88    6.64
  -1  -3  -8  162.71    5.21
  -1  -3  -8  162.24    5.12
   1  -3   8  167.48    5.04
   1  -3   8  166.11    5.60
   1  -3   8  167.92    5.52
  -1  -3  -8  170.66    5.36
  -1  -3  -8  176.73    5.37
   1  -3   8  171.24    5.55
   1   3   8  169.50    5.34
   1   3   8  173.58    5.45
   1   3   8  162.71    5.51
  -1   3  -8  168.50    5.56
  -1   3  -8  165.35    5.31
  -3  -3  -8   13.64    0.67
   3  -3   8   13.98    0.49
   3  -3   8   13.19    0.91
  -3  -3  -8   12.11    0.74
  -3  -3  -8   14.81    0.88
   3  -3   8   13.75    0.89
  -3   3  -8   12.81    0.74
   3   3   8   14.27    0.91
  -3   3  -8   13.45    0.98
   3   3   8   14.31    0.71
   3   3   8   14.04    0.95
  -5  -3  -8   71.12    2.46
  -5  -3  -8   67.69    2.61
  -5  -3  -8   66.68    2.34
  -5  -3  -8   66.19    2.34
  -5  -3  -8   68.69    2.09
   5  -3   8   68.84    2.65
   5  -3   8   69.75    2.63
   5   3   8   67.29    2.62
  -5   3  -8   65.95    2.43
   5   3   8   70.14    2.74
  -5   3  -8   66.61    2.72
  -7  -3  -8  111.16    3.78
  -7  -3  -8  110.33    4.01
   7  -3   8  109.05    3.95
  -7  -3  -8  111.50    3.69
  -7   3  -8  106.97    4.08
   7   3   8  106.68    4.13
  -7   3  -8  115.45    3.45
  -7   3  -8  113.62    3.77
   7   3   8  113.24    3.99
  -9  -3  -8   10.99    0.78
  -9  -3  -8   11.59    1.22
   9  -3   8   11.49    0.98
  -9   3  -8   10.83    1.18
  -9   3  -8   11.52    0.80
   9   3   8   10.54    0.95
 -11  -3  -8   20.45    1.75
  11  -3   8   21.10    1.38
 -11  -3  -8   21.31    1.18
  11   3   8   20.24    1.35
 -11   3  -8   20.04    1.65
 -11   3  -8   22.15    1.20
 -13  -3  -8    1.18    0.44
  13  -3   8    0.95    0.51
 -13  -3  -8    1.16    0.93
 -13   3  -8    0.59    0.42
  13   3   8    1.10    0.51
 -13   3  -8    0.00    0.73
  15  -3   8   70.61    3.85
 -15  -3  -8   85.55    3.32
 -15  -3  -8   93.30    4.19
  15   3   8   84.56    3.62
 -15   3  -8   82.42    3.34
 -15   3  -8   83.37    4.01
 -17  -3  -8   26.60    1.76
 -17   3  -8   24.28    1.70
 -17   3  -8   29.34    2.77
 -19  -3  -8    3.01    0.78
 -19  -3  -8    3.23    0.92
 -19   3  -8    3.30    0.89
 -19   3  -8    3.92    1.73
 -20  -4   8    2.38    1.08
 -20  -4   8    1.97    1.70
 -20  -4   8    3.21    1.51
 -20   4   8    7.97    2.00
 -20   4   8    4.95    1.18
 -18  -4   8    6.26    1.43
 -18  -4   8    3.91    1.51
 -18  -4   8    5.73    0.99
 -18   4   8    1.25    1.40
 -18   4   8    4.53    0.98
  18   4  -8    5.01    0.72
 -16  -4   8   21.34    2.20
 -16  -4   8   18.50    1.45
  16   4  -8   20.58    1.21
 -16   4   8   15.85    1.67
 -16   4   8   23.40    1.42
 -16   4   8   18.85    2.44
 -14  -4   8   -0.14    0.41
 -14  -4   8   -0.30    0.73
 -14  -4   8    0.03    0.72
 -14   4   8    0.71    0.51
 -14   4   8    0.20    0.43
 -14   4   8   -0.03    0.84
  14   4  -8    0.45    0.38
 -12  -4   8   67.23    3.25
 -12  -4   8   70.57    3.06
 -12  -4   8   66.61    2.66
 -12   4   8   66.31    3.30
 -12   4   8   69.13    2.48
  12   4  -8   70.33    3.41
  12   4  -8   70.46    2.50
 -12   4   8   69.08    2.64
 -10  -4   8   24.27    1.53
 -10  -4   8   23.44    1.68
 -10  -4   8   23.13    1.25
 -10   4   8   25.46    1.71
 -10   4   8   24.44    1.16
 -10   4   8   25.19    1.05
  10   4  -8   25.92    1.58
  10   4  -8   22.48    1.12
  -8  -4   8    0.09    0.43
  -8  -4   8    0.33    0.25
  -8  -4   8    0.41    0.48
   8   4  -8    0.48    0.48
   8   4  -8    0.58    0.24
  -8   4   8    0.32    0.44
  -8   4   8    0.27    0.18
  -8   4   8    0.44    0.21
  -8   4   8    0.35    0.21
  -6  -4   8   20.26    1.23
  -6  -4   8   19.35    1.35
   6  -4  -8   22.18    0.86
   6   4  -8   20.16    1.21
  -6   4   8   20.69    0.87
  -6   4   8   19.89    1.28
   6   4  -8   20.08    0.96
  -6   4   8   21.91    0.81
  -6   4   8   20.68    0.81
  -6   4   8   19.99    1.15
  -4  -4   8   61.84    2.34
   4  -4  -8   58.65    1.96
  -4  -4   8   59.65    2.32
  -4  -4   8   59.83    2.52
  -4   4   8   56.07    2.29
   4   4  -8   58.95    2.10
  -4   4   8   58.57    1.94
  -4   4   8   58.49    2.32
  -4   4   8   60.70    1.93
  -4   4   8   58.43    2.02
   4   4  -8   56.52    2.31
  -2  -4   8    0.85    0.43
  -2  -4   8    0.19    0.28
  -2  -4   8    0.28    0.31
  -2  -4   8    0.44    0.13
   2   4  -8    1.02    0.37
  -2   4   8    0.59    0.20
  -2   4   8    0.58    0.15
   2   4  -8    0.68    0.15
   2   4  -8    0.43    0.20
  -2   4   8    0.90    0.25
  -2   4   8    0.42    0.26
  -2   4   8    0.36    0.29
   0  -4  -8    0.11    0.16
   0  -4   8    0.53    0.30
   0  -4   8    0.40    0.12
   0  -4  -8    0.25    0.11
   0  -4   8    0.03    0.27
   0  -4   8    0.76    0.43
   0  -4  -8    0.53    0.27
   0   4  -8    0.21    0.18
   0   4   8    0.23    0.21
   0   4  -8    0.55    0.34
   0   4   8   -0.39    0.23
   0   4   8    0.61    0.31
  -2  -4  -8   20.49    0.99
   2  -4   8   18.78    0.69
   2  -4   8   19.51    1.16
  -2  -4  -8   18.68    0.75
  -2  -4  -8   19.19    0.66
   2  -4   8   18.37    1.05
  -2  -4  -8   19.30    0.85
  -2  -4  -8   20.27    0.95
  -2   4  -8   19.27    0.93
   2   4   8   20.21    1.10
  -2   4  -8   18.62    1.17
   2   4   8   18.26    0.81
   2   4   8   18.08    1.04
   4  -4   8   62.35    2.00
   4  -4   8   60.60    2.51
   4  -4   8   63.38    2.46
  -4  -4  -8   61.91    2.14
  -4  -4  -8   63.35    1.97
  -4  -4  -8   67.63    2.21
  -4  -4  -8   63.17    2.19
   4   4   8   62.13    2.45
  -4   4  -8   64.77    2.30
   4   4   8   67.00    2.55
  -4   4  -8   59.20    2.59
  -6  -4  -8  107.07    3.35
  -6  -4  -8   96.34    3.31
  -6  -4  -8  103.59    3.63
   6  -4   8   97.43    3.59
  -6  -4  -8   98.54    3.33
  -6  -4  -8   99.97    3.09
  -6   4  -8  101.42    3.13
   6   4   8   99.25    3.77
  -6   4  -8  100.92    3.44
   6   4   8   99.48    3.61
  -6   4  -8   96.92    3.75
   8  -4   8   21.69    1.29
  -8  -4  -8   21.42    1.06
  -8  -4  -8   22.18    1.05
  -8  -4  -8   22.42    1.24
  -8  -4  -8   20.64    1.41
  -8   4  -8   23.87    1.53
  -8   4  -8   21.26    0.92
   8   4   8   21.37    1.29
  -8   4  -8   22.11    1.14
 -10  -4  -8    4.48    0.90
  10  -4   8    3.06    0.65
 -10  -4  -8    4.68    0.53
 -10  -4  -8    4.64    0.63
 -10   4  -8    3.62    0.53
 -10   4  -8    2.89    0.71
  10   4   8    4.03    0.70
  12  -4   8    5.27    0.78
 -12  -4  -8    7.43    0.81
 -12  -4  -8    4.70    1.09
 -12  -4  -8    6.56    0.67
  12   4   8    6.78    0.93
 -12   4  -8    4.35    0.63
 -12   4  -8    6.10    1.04
  14  -4   8   11.56    1.26
 -14  -4  -8   10.14    1.05
 -14  -4  -8    9.20    0.87
 -14  -4  -8   13.45    1.77
 -14   4  -8    9.71    1.01
 -14   4  -8    9.10    1.35
  14   4   8   13.03    1.26
  16  -4   8    1.22    0.78
 -16  -4  -8    1.78    0.61
 -16  -4  -8    1.33    0.53
  16   4   8    1.11    0.72
 -16   4  -8    1.10    0.59
 -18  -4  -8    0.33    0.70
 -18  -4  -8    0.18    0.59
 -18   4  -8    1.25    0.75
 -18   4  -8    2.30    1.51
 -20  -4  -8    6.82    1.19
 -20  -4  -8    6.88    1.00
 -20   4  -8    8.66    1.24
 -20   4  -8    2.99    1.86
 -21  -5   8    0.60    1.92
 -21  -5   8   -0.14    1.08
 -21  -5   8    1.79    1.79
 -21   5   8    1.41    1.21
 -21   5   8   -0.47    1.97
 -19  -5   8    0.09    1.47
 -19  -5   8    2.96    1.46
 -19  -5   8    2.51    0.89
 -19   5   8    3.39    1.07
 -19   5   8    0.98    1.54
 -17  -5   8    1.85    0.69
 -17  -5   8   -0.80    1.03
 -17  -5   8    3.83    1.32
  17   5  -8    1.02    0.60
 -17   5   8    1.84    1.25
 -17   5   8    1.32    0.71
 -15  -5   8   11.38    1.77
 -15  -5   8    9.78    1.44
 -15  -5   8   10.52    1.12
 -15   5   8    8.78    1.08
 -15   5   8    6.77    1.33
  15   5  -8   12.99    0.99
 -13  -5   8    0.07    0.63
 -13  -5   8    0.42    0.43
 -13  -5   8   -0.41    0.76
 -13   5   8    0.09    0.40
 -13   5   8   -0.50    0.39
  13   5  -8    0.26    0.37
 -13   5   8    0.47    0.84
 -11  -5   8   10.50    0.88
 -11  -5   8    9.81    1.33
 -11  -5   8    9.22    1.21
  11   5  -8   10.57    0.79
 -11   5   8   10.45    0.76
  11   5  -8    9.60    1.38
 -11   5   8   10.36    0.69
 -11   5   8    9.56    1.33
  -9  -5   8    5.90    0.95
  -9  -5   8    6.33    0.92
  -9  -5   8    8.05    0.72
  -9   5   8    7.34    0.54
  -9   5   8    7.22    1.06
  -9   5   8    7.40    0.49
   9   5  -8    7.23    0.64
   9   5  -8    7.14    1.07
  -7  -5   8   14.31    1.22
   7  -5  -8   13.94    0.70
  -7   5   8   13.96    0.60
  -7   5   8   13.95    0.60
  -7   5   8   14.22    0.65
   7   5  -8   14.02    1.15
   7   5  -8   13.50    0.80
  -7   5   8   13.93    1.13
   5  -5  -8    0.14    0.17
  -5  -5   8    0.27    0.40
  -5  -5   8   -0.45    0.28
  -5   5   8    0.37    0.31
  -5   5   8    0.06    0.18
  -5   5   8    0.10    0.34
  -5   5   8    0.50    0.17
   5   5  -8    0.07    0.20
   5   5  -8    0.14    0.37
  -3  -5   8   54.63    2.32
  -3  -5   8   50.82    2.07
   3  -5  -8   51.39    1.79
  -3   5   8   50.55    1.73
  -3   5   8   49.88    2.01
  -3   5   8   50.55    1.82
  -3   5   8   51.15    1.71
   3   5  -8   54.72    1.62
   3   5  -8   50.81    2.16
  -3   5   8   50.99    2.06
  -1  -5   8    7.43    0.40
   1  -5  -8    6.87    0.47
   1  -5  -8    7.01    0.39
  -1  -5   8    7.48    0.80
  -1  -5   8    7.15    0.71
   1   5  -8    7.54    0.56
  -1   5   8    8.29    0.68
  -1   5   8    7.38    0.57
   1   5  -8    7.73    0.45
  -1   5   8    7.54    0.59
   1   5  -8    8.02    0.83
  -1   5   8    8.36    0.42
   1  -5   8    4.39    0.67
  -1  -5  -8    4.65    0.50
   1  -5   8    4.30    0.60
  -1  -5  -8    3.74    0.27
  -1  -5  -8    3.67    0.37
   1  -5   8    4.03    0.28
  -1   5  -8    4.40    0.47
   1   5   8    4.45    0.38
   1   5   8    4.99    0.59
  -1   5  -8    3.84    0.62
   1   5   8    3.85    0.53
  -3  -5  -8   21.45    0.95
   3  -5   8   21.66    1.26
  -3  -5  -8   21.40    0.85
  -3  -5  -8   22.10    0.80
   3  -5   8   22.17    0.81
   3  -5   8   21.59    1.18
  -3  -5  -8   23.30    1.14
  -3   5  -8   21.93    1.41
   3   5   8   21.89    1.17
  -3   5  -8   21.72    1.05
  -5  -5  -8    1.22    0.28
   5  -5   8    1.15    0.18
   5  -5   8    1.05    0.37
  -5  -5  -8    1.08    0.25
  -5  -5  -8    1.37    0.19
   5  -5   8    1.24    0.41
  -5  -5  -8    0.96    0.24
   5   5   8    1.06    0.35
   5   5   8    1.90    0.60
  -5   5  -8    1.40    0.54
  -5   5  -8    0.80    0.26
  -7  -5  -8    1.03    0.25
  -7  -5  -8    1.32    0.22
   7  -5   8    1.53    0.44
  -7  -5  -8    1.20    0.31
  -7  -5  -8    1.36    0.59
  -7  -5  -8    1.28    0.40
  -7   5  -8    1.50    0.36
   7   5   8    0.96    0.42
  -7   5  -8    1.54    0.59
   7   5   8    0.79    0.72
  -9  -5  -8    7.55    0.62
   9  -5   8    7.17    0.89
  -9  -5  -8    7.39    1.01
  -9  -5  -8    7.37    0.68
  -9   5  -8    7.29    1.12
  -9   5  -8    7.07    0.69
   9   5   8    6.53    0.82
 -11  -5  -8    5.21    1.05
  11  -5   8    4.88    0.76
 -11  -5  -8    5.57    0.72
  11   5   8    6.63    0.92
 -11   5  -8    6.19    0.75
 -11   5  -8    6.85    1.08
 -13  -5  -8    6.81    0.74
 -13  -5  -8    6.76    0.90
  13  -5   8    8.03    1.12
 -13  -5  -8    5.35    1.25
 -13   5  -8    8.33    1.28
 -13   5  -8    7.55    0.89
  13   5   8    6.27    0.92
 -15  -5  -8   14.02    1.08
 -15  -5  -8   12.82    1.24
  15  -5   8   15.13    1.53
  15   5   8   15.04    1.47
 -15   5  -8   14.69    2.08
 -15   5  -8   17.81    1.33
 -17  -5  -8    0.94    0.57
 -17  -5  -8    1.98    0.71
 -17   5  -8    2.08    1.37
 -17   5  -8    1.56    0.74
 -19  -5  -8    6.91    0.96
 -19  -5  -8    8.77    1.17
 -19   5  -8    8.77    1.15
 -19   5  -8    8.45    2.11
 -20  -6   8   13.32    2.25
 -20  -6   8   16.20    1.87
 -20  -6   8   13.33    2.85
 -20   6   8   14.49    2.33
 -20   6   8   12.57    1.48
 -18  -6   8    2.21    0.81
 -18  -6   8    2.26    1.43
 -18  -6   8    4.63    1.47
 -18   6   8   -1.05    1.46
  18   6  -8    1.79    0.73
 -18   6   8    2.21    0.90
 -16  -6   8    0.34    1.06
 -16  -6   8   -0.52    1.04
 -16  -6   8    0.15    0.59
  16   6  -8   -0.40    0.55
 -16   6   8    0.29    1.18
 -16   6   8    1.22    0.64
 -14  -6   8   21.08    2.04
 -14  -6   8   18.48    1.34
 -14  -6   8   20.10    1.91
 -14   6   8   20.71    2.14
 -14   6   8   15.99    1.19
  14   6  -8   19.62    1.23
 -12  -6   8   13.96    1.05
 -12  -6   8   14.11    1.53
 -12  -6   8   12.91    1.54
 -12   6   8   12.57    0.83
 -12   6   8   12.84    1.59
  12   6  -8   11.64    1.68
  12   6  -8   14.37    0.98
 -12   6   8   14.26    0.88
 -10  -6   8    0.83    0.60
 -10  -6   8    1.58    0.43
 -10  -6   8    1.19    0.58
  10   6  -8    2.34    0.45
 -10   6   8    1.95    0.30
  10   6  -8    1.69    0.76
 -10   6   8    0.76    0.58
 -10   6   8    1.63    0.30
  -8  -6   8    4.63    0.82
  -8   6   8    6.35    0.97
  -8   6   8    5.75    0.40
   8   6  -8    6.03    0.64
  -8   6   8    5.92    0.39
   8   6  -8    6.77    0.91
  -6  -6   8    4.59    0.77
   6  -6  -8    4.40    0.44
  -6  -6   8    3.74    0.58
   6   6  -8    4.43    0.74
   6   6  -8    4.79    0.54
  -6   6   8    4.66    0.33
  -6   6   8    4.04    0.66
  -6   6   8    5.25    0.65
  -6   6   8    4.25    0.33
  -4  -6   8  123.53    4.56
  -4  -6   8  123.88    4.28
   4  -6  -8  123.73    3.97
   4  -6  -8  121.40    3.94
   4   6  -8  121.35    4.40
  -4   6   8  123.61    4.26
   4   6  -8  133.82    3.75
  -4   6   8  121.63    3.90
   4   6  -8  125.45    4.14
  -4   6   8  123.17    4.25
  -4   6   8  127.17    3.83
   2  -6  -8   58.86    2.01
   2  -6  -8   61.47    2.09
  -2  -6   8   58.95    2.58
  -2  -6   8   60.81    2.36
   2   6  -8   61.38    2.23
   2   6  -8   57.47    2.47
   2   6  -8   62.79    1.94
  -2   6   8   60.92    2.13
  -2   6   8   60.98    2.34
  -2   6   8   60.64    2.18
  -2   6   8   59.49    2.00
   0  -6  -8   41.05    1.54
   0  -6  -8   41.14    1.42
   0  -6   8   40.56    1.44
   0  -6   8   42.73    1.80
   0  -6   8   43.65    2.00
   0   6   8   41.95    1.47
   0   6  -8   42.51    1.67
   0   6   8   41.58    1.76
   0   6   8   42.97    1.70
   0   6  -8   39.09    1.46
  -2  -6  -8   20.57    0.93
   2  -6   8   19.46    1.25
  -2  -6  -8   19.99    0.79
   2  -6   8   19.54    1.13
  -2  -6  -8   21.95    0.98
   2  -6   8   21.12    0.82
   2   6   8   22.27    1.21
  -2   6  -8   23.35    1.07
  -2   6  -8   19.57    1.32
   2   6   8   19.15    1.10
   4  -6   8   40.91    1.77
   4  -6   8   39.12    1.90
   4  -6   8   38.46    1.38
  -4  -6  -8   39.24    1.41
  -4  -6  -8   40.78    1.55
  -4  -6  -8   39.48    1.71
  -4  -6  -8   38.68    1.36
  -4   6  -8   40.49    1.65
  -4   6  -8   41.27    1.97
   4   6   8   39.98    1.76
   4   6   8   40.35    1.92
  -6  -6  -8    0.53    0.25
  -6  -6  -8    0.36    0.19
  -6  -6  -8    0.23    0.20
   6  -6   8    0.40    0.39
   6   6   8    0.20    0.32
  -6   6  -8    0.59    0.47
   6   6   8    0.50    0.65
  -6   6  -8    0.18    0.24
  -8  -6  -8    2.90    0.78
   8  -6   8    3.95    0.63
  -8  -6  -8    4.00    0.55
  -8  -6  -8    3.50    0.48
  -8  -6  -8    3.25    0.43
  -8   6  -8    2.90    0.65
   8   6   8    3.47    0.57
  -8   6  -8    2.58    0.44
  10  -6   8    1.03    0.50
 -10  -6  -8    0.70    0.29
 -10  -6  -8    0.81    0.30
 -10  -6  -8    0.73    0.69
 -10  -6  -8    0.67    0.37
 -10  -6  -8   -0.71    0.75
  10   6   8    1.13    0.48
 -10   6  -8    0.84    0.38
 -10   6  -8    1.48    0.71
 -12  -6  -8   28.03    1.47
  12  -6   8   27.20    1.65
 -12  -6  -8   27.88    1.38
 -12   6  -8   28.86    2.06
  12   6   8   26.29    1.65
 -12   6  -8   28.71    1.50
 -14  -6  -8   19.68    1.20
  14  -6   8   21.24    1.63
 -14   6  -8   23.29    1.61
 -14   6  -8   20.34    2.08
  14   6   8   20.67    1.84
 -16  -6  -8    4.42    0.70
 -16  -6  -8    5.62    0.86
 -16   6  -8    5.99    1.46
 -16   6  -8    6.27    0.95
 -18  -6  -8   20.56    1.84
 -18  -6  -8   21.62    1.53
 -18   6  -8   22.71    3.01
 -18   6  -8   23.71    1.86
 -19  -7   8   10.76    1.34
 -19  -7   8   11.45    2.11
 -19  -7   8    8.57    1.93
 -19   7   8    8.09    2.07
 -19   7   8    8.84    1.18
  19   7  -8    8.23    1.13
 -17  -7   8    2.47    1.34
 -17  -7   8   -1.67    1.18
 -17  -7   8    0.02    0.72
 -17   7   8    0.44    0.66
  17   7  -8    0.62    0.68
 -17   7   8   -0.11    1.29
 -15  -7   8   21.30    2.52
 -15  -7   8   28.47    2.42
 -15  -7   8   23.64    1.58
 -15   7   8   17.26    2.70
  15   7  -8   21.94    1.44
 -13  -7   8   46.18    2.68
 -13  -7   8   48.91    2.78
 -13  -7   8   45.91    2.13
 -13   7   8   41.86    1.79
 -13   7   8   43.78    2.85
  13   7  -8   44.78    2.01
 -11  -7   8   13.36    1.51
 -11  -7   8   13.27    1.45
 -11  -7   8   11.63    1.00
 -11   7   8   12.46    1.53
  11   7  -8   10.07    1.35
 -11   7   8   11.74    0.69
  11   7  -8   12.61    0.97
  -9  -7   8   71.02    3.20
   9   7  -8   74.29    3.17
  -9   7   8   73.94    2.28
  -9   7   8   64.80    3.10
   9   7  -8   72.52    2.69
  -7  -7   8   76.00    3.26
   7  -7  -8   74.17    2.58
  -7  -7   8   76.89    2.92
   7   7  -8   74.51    2.76
   7   7  -8   75.01    3.15
  -7   7   8   73.32    2.86
  -7   7   8   73.11    3.04
   5  -7  -8    3.35    0.42
   5  -7  -8    3.34    0.43
  -5  -7   8    3.49    0.59
  -5  -7   8    2.21    0.55
  -5   7   8    3.60    0.58
   5   7  -8    3.48    0.51
  -5   7   8    3.24    0.30
  -5   7   8    2.50    0.47
  -5   7   8    3.07    0.32
  -3  -7   8   44.08    1.60
   3  -7  -8   45.59    1.64
  -3  -7   8   45.84    1.90
   3  -7  -8   42.23    1.58
  -3  -7   8   42.99    2.14
  -3   7   8   41.17    1.73
   3   7  -8   43.22    2.10
   3   7  -8   45.98    1.46
  -3   7   8   42.27    1.57
  -3   7   8   44.46    1.86
  -3   7   8   45.00    1.50
  -1  -7   8   47.58    2.26
  -1  -7   8   49.78    2.04
  -1  -7   8   49.87    1.75
   1  -7  -8   52.15    1.83
  -1   7   8   50.81    2.02
  -1   7   8   50.85    1.91
   1   7  -8   48.68    1.70
  -1   7   8   50.42    1.75
   1   7  -8   51.26    1.96
   1   7  -8   50.82    2.25
   1  -7   8   19.62    0.82
  -1  -7  -8   19.32    0.81
  -1  -7  -8   20.38    1.13
   1  -7   8   19.78    1.31
   1  -7   8   20.31    1.12
  -1   7  -8   18.91    1.01
   1   7   8   20.13    1.13
   1   7   8   18.31    1.06
  -1   7  -8   18.40    1.30
  -3  -7  -8   14.93    0.69
  -3  -7  -8   15.90    0.82
  -3  -7  -8   14.92    0.94
   3  -7   8   15.10    0.70
   3  -7   8   15.63    1.02
   3  -7   8   14.21    1.13
  -3   7  -8   15.06    0.91
   3   7   8   14.79    0.96
   3   7   8   16.23    1.17
  -3   7  -8   16.11    1.23
  -5  -7  -8    0.27    0.22
   5  -7   8    0.66    0.38
  -5  -7  -8    0.28    0.24
  -5  -7  -8    0.33    0.24
  -5  -7  -8   -0.50    0.49
   5  -7   8    0.46    0.20
  -5   7  -8   -0.11    0.49
   5   7   8    1.08    0.39
   5   7   8    0.75    0.65
  -5   7  -8    0.23    0.25
   7  -7   8   94.39    3.42
  -7  -7  -8   90.92    3.10
  -7  -7  -8   90.12    2.99
   7  -7   8   93.20    3.02
  -7  -7  -8   95.25    3.21
  -7   7  -8   91.71    3.70
  -7   7  -8   94.80    3.33
   7   7   8   88.41    3.39
  -9  -7  -8   37.97    1.45
   9  -7   8   37.07    1.84
  -9  -7  -8   39.38    1.62
  -9  -7  -8   37.39    1.61
  -9   7  -8   38.61    1.74
   9   7   8   38.19    1.84
  -9   7  -8   35.68    2.11
 -11  -7  -8   11.34    0.96
  11  -7   8   12.02    1.15
 -11  -7  -8   11.22    0.76
 -11  -7  -8   11.48    0.87
  11   7   8   10.52    1.07
 -11   7  -8   10.74    0.95
 -11   7  -8   10.76    1.45
 -13  -7  -8    3.62    0.60
  13  -7   8    4.00    0.84
 -13  -7  -8    3.85    0.69
 -13   7  -8    3.56    0.77
 -13   7  -8    4.99    1.11
  13   7   8    4.57    0.84
 -15  -7  -8   53.28    2.32
 -15  -7  -8   53.48    2.47
  15  -7   8   55.96    2.71
 -15   7  -8   56.37    2.53
  15   7   8   54.35    2.65
 -15   7  -8   53.53    3.24
 -17  -7  -8    8.98    1.13
 -17  -7  -8    9.13    1.18
 -17   7  -8   10.18    1.40
 -17   7  -8   11.64    1.88
 -19  -7  -8    6.45    0.94
 -19   7  -8    6.05    1.09
 -18  -8   8   21.47    3.03
 -18  -8   8   19.58    2.94
 -18  -8   8   19.33    1.79
 -18   8   8   17.49    1.51
 -18   8   8   19.23    2.66
  18   8  -8   18.07    1.71
 -16  -8   8    2.83    1.37
 -16  -8   8    2.07    0.74
 -16  -8   8    1.41    1.31
  16   8  -8    2.79    0.76
 -16   8   8    1.65    1.46
 -16   8   8    2.15    0.65
 -14  -8   8    8.33    1.13
 -14  -8   8   13.10    1.93
 -14  -8   8   11.15    2.04
 -14   8   8   11.45    1.77
 -14   8   8    8.55    0.83
 -12  -8   8   85.97    3.80
 -12  -8   8   84.34    3.27
 -12  -8   8   85.43    3.86
  12   8  -8   84.38    3.20
 -12   8   8   78.45    3.91
  12   8  -8   86.89    3.90
 -12   8   8   81.41    2.75
 -10  -8   8   62.63    3.04
 -10   8   8   59.83    3.00
  10   8  -8   61.29    3.03
  10   8  -8   57.73    2.42
  -8  -8   8    1.10    0.61
  -8  -8   8    1.13    0.51
   8   8  -8    0.72    0.67
  -8   8   8    1.32    0.65
  -8   8   8    0.69    0.42
   8   8  -8    0.63    0.36
   6  -8  -8   30.63    1.29
   6  -8  -8   29.47    1.27
  -6  -8   8   28.72    1.83
  -6  -8   8   31.41    1.58
   6   8  -8   31.20    1.45
  -6   8   8   29.79    1.48
   6   8  -8   28.52    1.84
  -6   8   8   29.93    1.63
   4  -8  -8  296.95    9.38
  -4  -8   8  306.40    9.67
   4  -8  -8  299.68    9.43
  -4  -8   8  310.54   10.10
  -4  -8   8  304.72    9.41
   4   8  -8  310.84    9.97
  -4   8   8  309.81    9.66
  -4   8   8  300.72    9.26
   4   8  -8  322.49    9.19
   4   8  -8  300.45    9.63
  -4   8   8  296.86    9.59
  -4   8   8  322.65    9.21
   2  -8  -8   39.25    1.50
  -2  -8   8   36.27    1.95
   2  -8  -8   39.83    1.44
  -2  -8   8   38.64    1.44
  -2  -8   8   40.05    1.71
  -2   8   8   37.14    1.50
   2   8  -8   40.10    1.97
   2   8  -8   36.06    1.61
   2   8  -8   37.59    1.35
  -2   8   8   36.81    1.65
  -2   8   8   36.83    1.45
   0  -8  -8   13.06    0.75
   0  -8   8   14.94    0.97
   0  -8   8   13.25    0.67
   0  -8  -8   13.21    0.68
   0  -8   8   12.61    1.14
   0   8   8   13.31    0.93
   0   8  -8   13.58    1.17
   0   8  -8   13.04    0.86
   0   8   8   13.37    0.89
   2  -8   8   63.75    2.15
  -2  -8  -8   62.53    2.14
   2  -8   8   62.12    2.43
  -2  -8  -8   64.60    2.28
   2  -8   8   63.91    2.72
   2   8   8   63.77    2.56
  -2   8  -8   62.88    2.40
  -2   8  -8   61.72    2.71
   2   8   8   64.33    2.43
   4  -8   8   53.19    1.84
  -4  -8  -8   50.54    1.96
   4  -8   8   53.60    2.14
   4  -8   8   50.07    2.36
  -4  -8  -8   50.49    1.81
   4   8   8   53.41    2.14
  -4   8  -8   53.01    2.45
  -4   8  -8   52.70    2.09
  -6  -8  -8   46.84    1.82
  -6  -8  -8   47.30    1.67
   6  -8   8   45.61    2.01
  -6  -8  -8   44.45    1.65
   6  -8   8   46.61    1.68
  -6   8  -8   47.71    1.96
   6   8   8   43.35    1.98
  -6   8  -8   47.70    2.33
  -8  -8  -8    6.21    0.57
   8  -8   8    6.25    0.54
  -8  -8  -8    6.30    0.67
  -8  -8  -8    5.52    0.62
   8  -8   8    7.70    0.93
   8   8   8    7.39    0.84
  -8   8  -8    4.94    0.83
  -8   8  -8    6.51    0.74
  10  -8   8   31.67    1.74
 -10  -8  -8   32.69    1.52
 -10  -8  -8   33.90    1.52
 -10  -8  -8   31.70    1.35
 -10   8  -8   33.25    2.12
  10   8   8   30.81    1.71
 -10   8  -8   33.72    1.63
 -12  -8  -8   88.89    3.15
  12  -8   8   93.28    3.60
 -12  -8  -8   93.50    3.38
 -12   8  -8   94.54    4.08
  12   8   8   93.13    3.62
 -12   8  -8   87.11    3.46
 -14  -8  -8   68.48    2.81
 -14  -8  -8   68.05    2.72
 -14  -8  -8   66.31    2.55
  14   8   8   65.46    2.96
 -14   8  -8   66.57    2.88
 -14   8  -8   71.23    3.61
 -16  -8  -8    5.84    0.99
 -16  -8  -8    5.81    0.81
 -16   8  -8    6.71    1.59
 -16   8  -8    6.42    0.99
 -18  -8  -8   39.87    2.11
 -18  -8  -8   40.71    2.42
 -18   8  -8   43.47    2.44
 -18   8  -8   35.65    3.38
 -19  -9   8    6.57    2.12
 -19  -9   8    8.40    1.25
 -19  -9   8    6.18    2.10
 -19   9   8    5.76    0.94
 -19   9   8    7.28    2.04
  19   9  -8    6.13    1.11
 -17  -9   8   59.54    2.99
 -17  -9   8   62.99    4.13
 -17  -9   8   62.86    3.95
 -17   9   8   58.61    2.44
 -17   9   8   60.07    4.19
  17   9  -8   67.26    2.88
 -15  -9   8   84.59    4.26
 -15  -9   8   77.71    3.34
 -15  -9   8   80.60    4.10
  15   9  -8   84.14    3.28
 -15   9   8   73.49    4.34
 -15   9   8   76.04    2.77
 -13  -9   8    8.75    1.10
  13   9  -8   10.01    1.12
 -13   9   8    6.75    1.40
 -11  -9   8   22.69    1.98
  11   9  -8   22.22    2.17
  11   9  -8   19.60    1.32
 -11   9   8   16.97    1.91
  -9  -9   8  145.33    5.56
  -9  -9   8  149.08    5.12
   9   9  -8  146.33    5.00
  -9   9   8  141.20    5.02
  -9   9   8  138.35    5.42
   9   9  -8  147.94    5.49
  -7  -9   8  101.75    3.77
   7  -9  -8  101.61    3.49
  -7  -9   8  104.39    4.19
   7  -9  -8  103.68    3.51
   7   9  -8  102.69    3.71
  -7   9   8  101.77    3.92
  -7   9   8  103.57    3.71
   7   9  -8  104.05    4.14
  -5  -9   8    0.18    0.50
  -5  -9   8    0.17    0.41
  -5  -9   8    0.26    0.24
   5  -9  -8    0.42    0.28
   5  -9  -8    0.39    0.27
   5   9  -8    0.15    0.30
  -5   9   8    0.73    0.38
   5   9  -8    0.31    0.58
  -5   9   8    0.66    0.75
  -3  -9   8   10.58    0.67
  -3  -9   8   11.37    0.95
   3  -9  -8   12.53    0.74
   3  -9  -8   10.72    0.68
  -3  -9   8    9.99    1.15
  -3   9   8   10.27    0.84
  -3   9   8   11.35    0.76
   3   9  -8    9.06    1.15
   3   9  -8    9.78    0.82
  -3   9   8   10.29    0.69
  -1  -9   8   36.46    1.38
  -1  -9   8   34.69    1.60
   1  -9  -8   34.98    1.37
  -1  -9   8   33.89    1.91
   1  -9  -8   35.04    1.44
   1   9  -8   35.57    1.92
  -1   9   8   33.20    1.53
   1   9  -8   34.24    1.56
  -1   9   8   33.57    1.53
   1  -9   8  217.51    6.62
   1  -9   8  212.99    6.83
  -1  -9  -8  216.25    6.60
  -1  -9  -8  207.46    6.71
   1  -9   8  209.62    7.22
   1   9   8  211.31    6.83
  -1   9  -8  221.56    6.89
  -1   9  -8  209.21    7.23
   1   9   8  209.73    6.95
   3  -9   8   39.60    1.48
   3  -9   8   40.09    2.02
  -3  -9  -8   37.12    1.58
  -3  -9  -8   37.75    1.46
   3  -9   8   37.91    1.71
   3   9   8   38.42    1.71
  -3   9  -8   39.29    2.06
   3   9   8   38.93    1.98
  -3   9  -8   39.35    1.71
   5  -9   8   14.64    0.77
  -5  -9  -8   15.51    0.89
   5  -9   8   13.63    1.04
  -5  -9  -8   13.92    0.76
  -5   9  -8   14.87    0.98
  -5   9  -8   15.80    1.40
   5   9   8   13.66    1.02
   7  -9   8  152.01    5.12
  -7  -9  -8  152.05    4.98
   7  -9   8  156.26    4.84
  -7  -9  -8  149.74    4.76
  -7  -9  -8  140.72    4.77
   7   9   8  145.14    5.12
  -7   9  -8  155.52    5.14
  -7   9  -8  154.84    5.56
   9  -9   8  100.25    3.70
  -9  -9  -8   98.83    3.51
  -9  -9  -8   96.80    3.33
  -9  -9  -8  102.83    3.43
  -9   9  -8   97.57    4.11
   9   9   8   99.25    3.71
  -9   9  -8  103.44    3.68
 -11  -9  -8    4.34    0.65
  11  -9   8    4.20    0.77
 -11  -9  -8    4.46    0.57
 -11   9  -8    3.91    1.06
  11   9   8    2.64    0.70
 -11   9  -8    3.25    0.65
  13  -9   8   15.95    1.57
 -13  -9  -8   17.31    1.19
 -13  -9  -8   13.50    1.15
  13   9   8   13.98    1.52
 -13   9  -8   16.48    1.31
 -13   9  -8   15.01    2.00
 -15  -9  -8   16.29    1.51
 -15  -9  -8   16.45    1.30
 -15   9  -8   15.42    1.48
 -15   9  -8   15.52    1.89
 -17  -9  -8   35.33    2.00
 -17  -9  -8   42.44    2.34
 -17   9  -8   35.66    2.24
 -17   9  -8   36.91    3.11
 -18 -10   8   67.09    3.29
 -18 -10   8   71.39    4.53
 -18  10   8   64.98    4.67
  18  10  -8   66.09    3.14
 -16 -10   8   21.43    1.78
 -16 -10   8   21.17    2.97
 -16  10   8   23.29    3.15
  16  10  -8   21.86    1.75
 -14 -10   8  117.59    5.13
  14  10  -8  117.96    4.32
 -14  10   8  105.00    5.27
 -12 -10   8   45.63    3.90
  12  10  -8   43.63    2.16
  12  10  -8   52.96    4.05
 -12  10   8   41.21    2.89
 -10 -10   8   44.09    2.22
 -10 -10   8   43.63    2.60
  10  10  -8   43.06    2.79
  10  10  -8   38.81    2.01
 -10  10   8   45.46    2.63
 -10  10   8   44.73    2.10
  -8 -10   8    3.40    0.50
  -8 -10   8    4.13    0.81
  -8 -10   8    3.64    0.92
   8  10  -8    3.88    0.61
  -8  10   8    4.65    0.91
   8  10  -8    3.15    1.00
  -8  10   8    6.05    0.89
   6 -10  -8   89.86    3.18
   6 -10  -8   92.01    3.15
  -6 -10   8   89.90    3.15
  -6 -10   8   93.41    3.38
  -6 -10   8   88.98    3.84
   6  10  -8   90.08    3.83
  -6  10   8   90.79    3.30
  -6  10   8   88.35    3.44
   6  10  -8   91.60    3.39
  -4 -10   8   75.41    2.84
  -4 -10   8   77.99    2.66
   4 -10  -8   72.31    2.61
  -4 -10   8   75.42    3.26
   4 -10  -8   75.06    2.69
  -4  10   8   74.67    2.47
   4  10  -8   78.70    2.90
  -4  10   8   70.99    2.71
   4  10  -8   75.64    3.27
  -4  10   8   70.13    2.73
  -2 -10   8  132.05    4.16
   2 -10  -8  127.06    4.22
   2 -10  -8  130.63    4.14
  -2 -10   8  126.56    4.78
  -2 -10   8  122.52    4.29
  -2  10   8  120.55    4.19
   2  10  -8  128.94    4.40
  -2  10   8  122.56    4.26
   2  10  -8  129.74    4.79
   0 -10   8    2.83    0.54
   0 -10   8    3.06    0.65
   0 -10  -8    2.60    0.39
   0 -10   8    3.22    0.45
   0 -10  -8    3.01    0.40
   0  10   8    3.43    0.63
   0  10   8    2.29    0.49
   0  10  -8    2.26    0.47
   0  10  -8    3.41    0.79
  -2 -10  -8  187.37    5.92
   2 -10   8  191.96    6.60
   2 -10   8  183.90    6.09
   2 -10   8  188.79    5.94
  -2 -10  -8  189.67    6.06
  -2  10  -8  190.73    6.61
  -2  10  -8  194.71    6.23
   2  10   8  188.06    6.40
   2  10   8  184.04    6.11
   4 -10   8  178.40    5.79
  -4 -10  -8  178.88    5.58
   4 -10   8  179.33    5.60
  -4 -10  -8  178.13    5.74
  -4  10  -8  177.35    5.88
   4  10   8  170.13    5.79
  -4  10  -8  176.27    6.28
  -6 -10  -8   35.89    1.46
   6 -10   8   34.79    1.71
   6 -10   8   37.96    1.49
  -6 -10  -8   35.66    1.59
  -6  10  -8   39.35    2.19
   6  10   8   35.55    1.69
  -6  10  -8   35.99    1.70
  -8 -10  -8    0.14    0.35
  -8 -10  -8    0.26    0.39
   8 -10   8    1.03    0.58
   8 -10   8    0.32    0.31
  -8 -10  -8   -0.06    0.31
   8  10   8    0.96    0.49
  -8  10  -8    0.22    0.36
  -8  10  -8   -0.04    0.66
  10 -10   8   86.99    3.31
 -10 -10  -8   80.55    3.28
 -10 -10  -8   83.78    2.97
 -10 -10  -8   86.74    3.03
  10  10   8   84.44    3.30
 -10  10  -8   86.74    3.30
 -10  10  -8   83.24    3.80
 -12 -10  -8  108.43    3.72
 -12 -10  -8  107.01    3.86
  12 -10   8  108.21    4.04
 -12 -10  -8  108.89    3.84
 -12  10  -8  104.70    4.02
 -12  10  -8  102.42    4.56
  12  10   8  110.58    4.08
 -14 -10  -8   14.91    1.48
 -14 -10  -8   13.85    1.22
 -14 -10  -8   11.43    1.55
 -14  10  -8   13.28    1.85
 -14  10  -8   12.48    1.34
 -16 -10  -8    6.61    1.15
 -16 -10  -8    7.66    0.95
 -16  10  -8    6.99    1.68
 -16  10  -8    6.35    1.05
 -17 -11   8   66.24    4.44
  17  11  -8   61.63    3.07
 -17  11   8   66.30    4.51
 -15 -11   8   57.42    3.71
  15  11  -8   55.62    2.71
 -15  11   8   49.53    3.93
 -13 -11   8   13.86    1.84
 -13  11   8   14.17    3.44
  13  11  -8   15.33    1.46
 -13  11   8   17.97    1.60
 -11 -11   8   16.54    1.70
  11  11  -8   14.43    1.30
 -11  11   8   13.35    1.36
  11  11  -8   17.66    2.47
 -11  11   8   16.01    2.06
  -9 -11   8  165.19    5.63
  -9 -11   8  161.79    5.37
  -9 -11   8  164.18    6.18
  -9  11   8  155.27    5.94
   9  11  -8  171.43    6.25
  -9  11   8  159.56    5.47
   9  11  -8  151.47    6.02
   7 -11  -8   93.79    3.38
  -7 -11   8   93.02    3.34
  -7 -11   8   95.73    4.09
   7 -11  -8   94.26    3.33
  -7 -11   8   96.59    3.54
   7  11  -8  102.53    4.19
  -7  11   8   93.02    3.70
   7  11  -8   89.53    3.55
  -7  11   8   95.61    3.45
  -5 -11   8    1.71    0.62
   5 -11  -8    1.64    0.38
   5 -11  -8    1.09    0.39
  -5 -11   8    1.86    0.41
  -5 -11   8    1.45    0.70
   5  11  -8    1.27    0.79
   5  11  -8    1.71    0.47
  -5  11   8    0.70    0.63
  -5  11   8    0.31    0.45
  -3 -11   8    7.59    0.90
  -3 -11   8    6.12    0.60
  -3 -11   8    4.37    0.86
   3 -11  -8    5.88    0.65
   3 -11  -8    6.44    0.69
   3  11  -8    6.30    0.77
  -3  11   8    6.12    0.75
  -3  11   8    5.50    0.76
   3  11  -8    8.22    1.26
  -1 -11   8   97.02    3.35
   1 -11  -8   95.82    3.27
   1 -11  -8   96.89    3.34
  -1 -11   8   90.31    3.83
  -1 -11   8   96.00    3.25
  -1  11   8   95.16    3.31
   1  11  -8   98.18    3.51
  -1  11   8   92.59    3.43
   1  11  -8   93.28    3.88
   1 -11   8  137.18    4.55
  -1 -11  -8  139.34    4.59
   1 -11   8  137.63    5.12
  -1 -11  -8  137.33    4.46
   1 -11   8  137.00    4.47
  -1  11  -8  133.62    5.12
  -1  11  -8  137.18    4.73
   1  11   8  136.95    4.56
  -3 -11  -8   34.70    1.44
   3 -11   8   33.38    1.59
  -3 -11  -8   34.31    1.54
   3 -11   8   34.43    1.44
  -3  11  -8   35.62    1.68
  -3  11  -8   34.48    2.10
   3  11   8   33.69    1.57
  -5 -11  -8    9.09    0.76
  -5 -11  -8   10.03    0.81
   5 -11   8   10.22    0.74
   5 -11   8    9.24    1.00
  -5  11  -8   11.25    1.43
   5  11   8   10.20    0.93
  -5  11  -8    9.30    0.92
  -7 -11  -8  141.58    4.73
   7 -11   8  150.67    4.94
  -7 -11  -8  140.39    4.90
   7 -11   8  147.63    4.77
   7  11   8  150.93    4.99
  -7  11  -8  146.27    5.06
  -7  11  -8  144.72    5.53
   9 -11   8  129.03    4.22
   9 -11   8  131.69    4.47
  -9 -11  -8  122.40    4.34
  -9 -11  -8  131.74    4.13
  -9 -11  -8  121.89    4.17
   9  11   8  128.94    4.48
  -9  11  -8  116.47    5.35
  -9  11  -8  122.33    4.63
 -11 -11  -8    2.36    0.67
 -11 -11  -8    1.27    0.50
 -11 -11  -8    1.30    0.56
 -11  11  -8    2.06    0.62
 -11  11  -8    1.31    1.00
  11  11   8    2.68    0.74
 -13 -11  -8   10.42    1.17
 -13 -11  -8   12.29    1.41
 -13  11  -8   11.44    1.66
 -13  11  -8   12.43    1.34
 -15 -11  -8   29.34    1.96
 -15 -11  -8   24.79    1.67
 -15  11  -8   26.84    2.80
 -15  11  -8   25.50    1.92
 -16 -12   8   -0.41    1.81
  16  12  -8   -0.24    0.94
 -16  12   8    0.19    1.82
 -14 -12   8   22.53    2.80
 -14  12   8   18.83    2.38
  14  12  -8   17.37    1.69
 -12 -12   8   62.72    2.65
 -12 -12   8   75.11    3.47
 -12 -12   8   65.49    3.65
  12  12  -8   61.83    2.89
 -12  12   8   57.09    3.70
 -10 -12   8   53.18    3.42
 -10 -12   8   59.15    2.43
 -10 -12   8   59.89    2.86
  10  12  -8   66.64    3.69
  10  12  -8   56.16    2.63
 -10  12   8   59.12    3.18
  -8 -12   8   10.81    0.95
  -8 -12   8   13.36    1.75
   8 -12  -8   10.74    0.97
  -8 -12   8   11.75    1.45
  -8  12   8   12.52    1.14
   8  12  -8   11.39    1.61
   8  12  -8    9.90    1.10
  -8  12   8    8.90    1.23
  -6 -12   8   81.69    3.10
  -6 -12   8   80.05    3.63
   6 -12  -8   80.05    2.92
  -6 -12   8   79.97    2.93
   6 -12  -8   75.43    2.95
   6  12  -8   79.95    3.72
  -6  12   8   79.28    2.93
  -6  12   8   77.64    3.11
   6  12  -8   83.65    3.21
  -4 -12   8  202.82    7.17
   4 -12  -8  199.55    6.51
  -4 -12   8  202.46    6.49
   4 -12  -8  195.73    6.42
  -4 -12   8  202.48    6.46
   4  12  -8  203.25    7.22
  -4  12   8  196.18    6.16
  -4  12   8  201.26    6.25
   4  12  -8  199.96    6.72
  -4  12   8  203.99    6.42
  -2 -12   8   31.34    1.57
  -2 -12   8   34.64    1.47
   2 -12  -8   32.49    1.54
  -2 -12   8   32.11    2.08
   2 -12  -8   35.16    1.50
  -2  12   8   33.90    1.50
   2  12  -8   32.86    1.69
   2  12  -8   32.74    2.14
  -2  12   8   33.77    1.38
   0 -12   8    4.34    0.58
   0 -12  -8    3.42    0.53
   0 -12  -8    3.18    0.49
   0 -12   8    3.24    0.65
   0 -12   8    4.00    0.84
   0  12   8    3.78    0.56
   0  12  -8    3.59    0.61
   0  12  -8    4.69    0.86
  -2 -12  -8   44.89    1.79
  -2 -12  -8   42.61    1.88
   2 -12   8   46.75    1.80
   2 -12   8   40.54    2.34
   2 -12   8   44.32    1.87
  -2  12  -8   46.48    2.51
  -2  12  -8   45.93    2.02
   2  12   8   44.84    1.82
   4 -12   8   69.18    2.58
  -4 -12  -8   69.65    2.53
  -4 -12  -8   69.20    2.65
   4 -12   8   70.19    2.53
   4  12   8   70.07    2.60
  -4  12  -8   70.47    3.28
  -4  12  -8   68.88    2.79
   6 -12   8   42.42    1.74
  -6 -12  -8   42.20    1.75
   6 -12   8   42.89    2.08
  -6  12  -8   41.66    1.98
   6  12   8   42.68    1.84
  -6  12  -8   39.26    2.47
   8 -12   8    6.49    0.79
  -8 -12  -8    8.31    0.89
  -8 -12  -8    5.82    0.83
  -8  12  -8    7.38    1.27
   8  12   8    8.78    1.05
  -8  12  -8    7.84    1.20
 -10 -12  -8   22.38    1.38
 -10 -12  -8   21.15    1.35
  10 -12   8   24.85    1.32
 -10  12  -8   21.39    2.07
 -10  12  -8   21.37    1.50
 -12 -12  -8  106.91    3.90
 -12 -12  -8  104.10    3.78
 -12  12  -8  103.31    4.72
 -12  12  -8  108.64    4.11
 -14 -12  -8   56.95    2.58
 -14  12  -8   55.43    3.58
 -14  12  -8   61.84    2.83
 -15 -13   8   26.75    1.82
 -15 -13   8   32.56    3.42
 -15  13   8   23.43    3.02
  15  13  -8   31.05    2.19
 -13 -13   8   20.25    2.97
 -13 -13   8   21.69    1.52
 -13  13   8   22.75    2.88
  13  13  -8   18.74    1.77
 -11 -13   8   13.95    1.21
 -11 -13   8   13.41    1.87
  11  13  -8   12.40    1.41
  11  13  -8   14.09    2.40
 -11  13   8   12.59    1.79
  -9 -13   8   49.51    3.05
  -9 -13   8   49.18    2.15
   9  13  -8   49.40    3.39
   9  13  -8   47.39    2.35
  -7 -13   8   62.25    3.54
  -7 -13   8   57.40    2.79
   7 -13  -8   59.94    2.52
   7  13  -8   56.65    3.39
   7  13  -8   58.01    2.64
  -5 -13   8   18.12    1.13
   5 -13  -8   20.56    1.17
  -5 -13   8   17.25    1.89
   5  13  -8   18.46    1.35
   5  13  -8   17.27    2.02
  -3 -13   8   56.66    2.92
   3 -13  -8   58.49    2.36
   3 -13  -8   56.63    2.24
  -3 -13   8   57.98    2.24
   3  13  -8   57.20    3.04
  -3  13   8   56.00    2.28
   3  13  -8   56.08    2.54
  -3  13   8   56.93    2.04
   1 -13  -8   62.52    2.52
  -1 -13   8   67.12    2.45
  -1 -13   8   66.42    3.14
   1 -13  -8   66.25    2.45
   1  13  -8   61.97    3.18
  -1  13   8   61.13    2.39
   1  13  -8   65.18    2.69
  -1 -13  -8   10.99    0.91
   1 -13   8   10.68    1.51
  -1 -13  -8   10.96    0.96
   1 -13   8   11.59    0.85
  -1  13  -8   10.35    1.03
  -1  13  -8   10.04    1.57
  -3 -13  -8   29.62    1.96
  -3 -13  -8   35.01    1.55
   3 -13   8   35.02    1.54
  -3  13  -8   34.18    1.78
  -3  13  -8   33.46    2.31
   5 -13   8   12.49    0.95
  -5 -13  -8   14.28    1.03
  -5 -13  -8   12.84    1.03
  -7 -13  -8   61.61    2.51
  -7 -13  -8   62.24    2.41
   7 -13   8   65.66    2.42
  -7  13  -8   60.22    2.65
  -7  13  -8   57.93    3.20
   9 -13   8   32.32    1.59
  -9 -13  -8   31.77    1.65
  -9 -13  -8   30.84    1.64
  -9  13  -8   29.84    1.78
  -9  13  -8   29.34    2.37
 -11 -13  -8    9.88    1.14
 -11 -13  -8    9.61    1.28
 -11  13  -8   12.04    1.39
 -11  13  -8   10.31    1.49
 -13 -13  -8    5.31    0.77
 -13  13  -8    3.84    1.34
 -13  13  -8    2.41    0.95
 -14 -14   8    8.49    1.06
 -12 -14   8   18.91    1.49
 -12 -14   8   18.99    2.96
  12  14  -8   16.68    1.70
 -10 -14   8    0.01    1.28
 -10 -14   8    0.50    0.53
  10  14  -8   -0.09    0.69
  10  14  -8    1.22    1.85
   8 -14  -8   -0.61    0.51
  -8 -14   8    1.07    1.14
  -8 -14   8    1.20    0.53
   8  14  -8    0.65    0.66
   6 -14  -8    1.18    0.59
  -6 -14   8    1.08    1.07
  -6 -14   8    1.38    0.48
   6 -14  -8    0.97    0.55
   6  14  -8    1.04    0.61
   6  14  -8    1.54    1.25
  -4 -14   8   28.62    1.57
  -4 -14   8   27.50    2.93
   4 -14  -8   28.10    1.54
   4 -14  -8   27.15    1.59
  -4  14   8   27.49    1.16
   4  14  -8   25.77    1.66
   4  14  -8   26.10    2.39
   2 -14  -8   34.20    1.73
   2 -14  -8   34.46    1.67
  -2 -14   8   36.82    1.66
   2  14  -8   35.67    2.54
   2  14  -8   34.09    1.87
   0 -14  -8   10.64    0.99
   0 -14   8    8.86    0.85
   0 -14  -8    8.41    0.97
   0 -14   8    6.40    1.51
   0  14  -8    7.84    1.02
   0  14   8    8.73    0.90
   0  14  -8    9.10    1.54
  -2 -14  -8   10.67    0.98
  -2 -14  -8   10.99    1.02
   2 -14   8   10.28    0.91
  -2  14  -8    9.50    1.10
  -2  14  -8    7.42    1.33
   2  14   8   11.06    1.05
  -4 -14  -8   26.43    1.42
   4 -14   8   23.24    1.36
  -4 -14  -8   22.90    1.39
  -4  14  -8   21.40    2.12
  -4  14  -8   24.57    1.56
  -6 -14  -8   11.20    1.15
   6 -14   8   11.49    1.01
  -6 -14  -8   11.45    1.08
  -6  14  -8    9.14    1.15
  -6  14  -8   12.23    1.87
  -8 -14  -8    7.58    1.04
   8 -14   8    7.81    0.87
  -8 -14  -8    8.81    1.19
  -8  14  -8    8.20    1.23
  -8  14  -8    7.76    1.44
 -10 -14  -8    0.45    0.71
 -10 -14  -8    2.06    0.65
  10 -14   8    0.34    0.60
 -10  14  -8    1.18    1.18
 -10  14  -8    1.71    0.77
 -12 -14  -8    9.57    1.25
 -12  14  -8    7.85    1.74
 -12  14  -8   10.93    1.53
  12  14   8    6.25    1.01
 -11 -15   8    2.35    0.71
 -11 -15   8    0.56    1.70
  11  15  -8    1.26    0.89
  -9 -15   8    0.32    1.52
  -9 -15   8   -0.10    0.62
   9  15  -8    4.11    1.79
   9  15  -8   -0.11    0.77
  -7 -15   8    2.76    0.67
  -7 -15   8    1.10    1.30
   7 -15  -8    3.34    0.75
   7  15  -8    2.04    1.54
   7  15  -8    1.57    0.72
  -5 -15   8   -0.17    0.48
  -5 -15   8   -0.01    1.06
   5 -15  -8   -0.35    0.52
   5 -15  -8    0.30    0.59
   5  15  -8   -0.25    1.25
   5  15  -8   -0.24    0.60
  -3 -15   8    5.25    1.23
  -3 -15   8    4.13    0.66
   3 -15  -8    3.24    0.65
   3 -15  -8    2.72    0.68
  -3  15   8    4.20    0.58
   3  15  -8    4.96    0.80
   3  15  -8    4.49    1.43
  -1 -15   8    0.33    0.98
   1 -15  -8   -0.68    0.52
  -1 -15   8   -0.70    0.44
  -1  15   8    0.76    0.50
   1  15  -8    0.72    1.02
  -1 -15  -8   16.04    1.23
   1 -15   8   16.93    1.17
  -1 -15  -8   13.60    1.19
   1  15   8   14.48    1.18
  -1  15  -8   14.17    1.34
  -1  15  -8   16.95    2.09
  -3 -15  -8    2.34    0.71
  -3 -15  -8    2.57    0.59
   3 -15   8    2.14    0.58
   3  15   8    2.03    0.69
  -3  15  -8    1.29    1.00
  -3  15  -8    3.46    0.77
  -5 -15  -8    7.78    0.91
  -5 -15  -8   10.10    1.08
   5 -15   8    9.19    1.02
  -5  15  -8    8.43    1.42
  -5  15  -8   11.81    1.28
   5  15   8    7.69    1.12
   5  15   8    9.08    1.27
  -7 -15  -8    1.42    0.71
  -7 -15  -8    1.14    0.61
   7 -15   8    1.06    0.61
   7  15   8    1.63    0.68
  -7  15  -8    0.64    0.69
   7  15   8    1.14    0.80
  -7  15  -8   -0.32    1.14
  -9 -15  -8   -0.01    0.77
  -9 -15  -8   -0.54    0.63
   9 -15   8    0.32    0.64
   9  15   8    0.45    0.88
   9  15   8   -0.06    0.73
  -9  15  -8    0.88    0.82
  -9  15  -8    0.59    1.22
 -11 -15  -8    0.38    0.75
 -11  15  -8    0.54    1.32
  11  15   8    2.31    0.88
 -11  15  -8    0.06    0.90
  11  15   8   -0.03    1.11
 -10 -16   8    6.81    1.84
 -10 -16   8    3.03    0.82
  10  16  -8    2.44    0.97
  -8 -16   8   -0.28    0.63
  -8 -16   8    1.95    1.55
   8 -16  -8   -0.99    0.69
   8  16  -8    0.44    1.85
   8  16  -8   -0.37    0.81
   6 -16  -8    1.13    0.71
  -6 -16   8    2.33    0.69
  -6 -16   8    2.25    1.37
   6  16  -8    1.30    0.82
   6  16  -8    3.40    1.67
   4 -16  -8    7.61    0.96
  -4 -16   8   12.59    1.73
  -4 -16   8    8.57    1.12
   4 -16  -8    8.45    0.95
   4  16  -8    7.45    1.72
   4  16  -8    8.43    1.12
   2 -16  -8    2.60    0.71
  -2 -16   8    2.95    0.70
   2 -16  -8    2.90    0.70
   2  16  -8    1.96    0.80
  -2  16   8    3.01    0.61
   2  16  -8    1.77    1.30
   0 -16  -8    3.54    0.77
   0 -16  -8    3.83    0.75
   0 -16   8    3.14    0.68
   0  16  -8    2.74    1.35
   0  16   8    3.87    0.73
   0  16  -8    2.94    0.80
  -2 -16  -8    2.17    0.72
  -2 -16  -8    0.46    0.56
   2 -16   8   -0.99    0.52
  -2  16  -8   -0.13    0.69
  -2  16  -8    0.80    1.22
   2  16   8    0.26    0.62
  -4 -16  -8    9.99    1.22
   4 -16   8   11.69    1.18
  -4 -16  -8   10.71    1.33
   4  16   8    7.62    1.05
  -4  16  -8    9.75    1.67
  -4  16  -8    9.16    1.38
   6 -16   8    2.75    0.75
  -6 -16  -8    1.38    0.82
  -6 -16  -8    2.77    0.71
  -6  16  -8    4.01    1.32
  -6  16  -8    2.97    0.87
   6  16   8    2.77    0.88
  -8 -16  -8   -0.20    0.73
   8 -16   8    0.96    0.77
  -8 -16  -8    1.45    0.83
   8  16   8    0.73    0.93
  -8  16  -8   -0.78    0.86
  -8  16  -8    3.41    1.38
  -7 -17   8    6.63    0.95
  -7 -17   8    7.72    1.83
   7 -17  -8    6.06    0.99
   7  17  -8   10.29    2.10
   7  17  -8    6.28    1.15
   5 -17  -8   14.14    1.52
  -5 -17   8   17.61    1.42
  -5 -17   8   12.51    1.94
   5  17  -8   14.76    2.42
   5  17  -8   13.82    1.64
  -3 -17   8   -1.21    0.65
   3 -17  -8   -0.71    0.65
   3 -17  -8    0.72    0.75
  -3  17   8   -0.05    0.58
   3  17  -8    0.12    0.85
   3  17  -8   -1.37    1.44
  -1 -17   8   21.66    1.56
   1 -17  -8   21.59    1.67
   1 -17  -8   23.35    1.64
  -1  17   8   21.24    1.44
   1  17  -8   20.85    2.74
   1  17  -8   23.00    1.81
   1 -17   8   15.35    1.39
  -1 -17  -8   14.62    1.44
  -1 -17  -8   14.35    1.49
   1  17   8   10.85    1.34
  -1  17  -8   16.94    2.59
  -1  17  -8   15.68    1.61
  -3 -17  -8    9.69    1.27
  -3 -17  -8   10.69    1.47
   3 -17   8   10.44    1.27
   3  17   8    8.73    1.35
  -3  17  -8   10.77    1.80
  -3  17  -8    7.47    1.14
   5 -17   8    5.80    0.89
  -5 -17  -8    6.49    1.03
  -5 -17  -8    4.60    0.90
  -5  17  -8    2.32    1.53
   5  17   8    5.28    1.02
  -5  17  -8    3.98    0.98
 -20   0   9    0.64    1.23
 -20   0   9    1.37    1.02
 -20   0   9    1.03    1.59
 -18   0   9    0.08    0.79
 -18   0   9   -0.85    1.72
 -18   0   9    0.80    0.95
 -16   0   9    1.33    0.78
 -16   0   9   -1.81    0.97
 -16   0   9   -0.93    0.56
 -14   0   9   -0.83    0.72
 -14   0   9    1.16    0.63
 -14   0   9    0.24    0.44
 -12   0   9    0.36    0.65
 -12   0   9   -0.38    0.40
 -12   0   9   -0.06    0.34
 -10   0   9    0.28    0.27
 -10   0   9    0.31    0.40
 -10   0   9    0.16    0.54
   8   0  -9   -0.43    0.40
   8   0  -9    0.08    0.13
   8   0  -9   -0.09    0.21
  -8   0   9    0.42    0.45
  -8   0   9    0.03    0.34
  -8   0   9    0.24    0.25
  -6   0   9   -0.31    0.33
  -6   0   9    0.35    0.38
   6   0  -9    0.33    0.20
  -6   0   9    0.58    0.31
   6   0  -9    0.23    0.14
   6   0  -9    0.37    0.36
   4   0  -9    0.36    0.41
  -4   0   9    0.40    0.34
  -4   0   9    0.36    0.28
   4   0  -9    0.03    0.14
  -4   0   9    0.54    0.15
   4   0  -9    0.42    0.11
  -2   0   9    0.09    0.25
  -2   0   9    0.33    0.29
  -2   0   9    0.26    0.31
   2   0  -9    0.04    0.14
   2   0  -9   -0.26    0.29
   2   0  -9    0.13    0.11
   2   0  -9    0.06    0.21
   0   0  -9    0.51    0.14
   0   0  -9    0.13    0.24
   0   0   9   -0.19    0.27
   0   0   9   -0.47    0.26
   0   0  -9    0.22    0.19
   0   0  -9   -0.02    0.28
   0   0   9    0.76    0.37
   2   0   9    0.07    0.26
   2   0   9    0.99    0.44
  -2   0  -9    0.09    0.32
  -2   0  -9    0.16    0.18
   2   0   9   -0.05    0.27
   4   0   9   -0.06    0.29
  -4   0  -9    0.40    0.20
   4   0   9    0.47    0.52
  -4   0  -9   -0.19    0.35
   4   0   9    0.14    0.27
  -6   0  -9    0.23    0.46
   6   0   9   -0.16    0.28
  -6   0  -9    0.19    0.20
  -8   0  -9    0.18    0.24
  -8   0  -9    0.22    0.16
  -8   0  -9    0.22    0.59
   8   0   9    0.07    0.37
 -10   0  -9   -0.26    0.65
  10   0   9    0.55    0.45
 -10   0  -9   -0.16    0.30
  12   0   9   -0.32    0.49
 -12   0  -9   -0.07    0.83
 -12   0  -9    0.31    0.36
  14   0   9   -0.68    0.69
 -14   0  -9    0.22    0.56
 -14   0  -9   -1.06    1.01
 -16   0  -9    3.40    1.57
 -16   0  -9    0.33    0.60
  16   0   9    0.54    0.68
 -18   0  -9    1.54    0.78
 -18   0  -9   -1.52    1.74
 -20   0  -9   -0.91    1.01
 -21  -1   9   -1.04    1.74
 -21  -1   9    2.81    1.23
 -21  -1   9    0.83    1.41
 -21   1   9    1.15    1.39
 -21   1   9    1.93    1.81
 -19  -1   9   -1.36    1.43
 -19  -1   9   -1.10    1.08
 -19  -1   9   -0.21    0.93
 -19   1   9    0.80    0.94
 -19   1   9   -1.09    1.36
 -19   1   9    0.43    1.05
 -17  -1   9   10.28    1.69
 -17  -1   9   12.58    1.75
 -17  -1   9   10.44    1.36
 -17   1   9   10.88    1.79
 -17   1   9   10.94    1.32
 -17   1   9   12.97    1.66
 -15  -1   9   27.95    2.01
 -15  -1   9   33.59    1.74
 -15  -1   9   28.58    2.38
 -15   1   9   32.24    1.68
 -15   1   9   31.69    1.98
 -15   1   9   32.84    2.52
 -13  -1   9   13.25    1.04
 -13  -1   9   14.51    1.61
 -13  -1   9   14.34    1.28
  13   1  -9   13.68    0.77
 -13   1   9   15.78    1.06
 -13   1   9   14.58    1.27
 -13   1   9   15.29    1.67
 -11  -1   9   23.88    1.43
 -11  -1   9   22.02    1.68
 -11  -1   9   21.79    1.17
 -11   1   9   21.98    1.32
 -11   1   9   20.38    1.11
 -11   1   9   21.09    1.71
  -9  -1   9   40.89    1.65
  -9  -1   9   40.43    2.18
  -9  -1   9   40.37    2.02
  -9  -1   9   40.13    1.79
   9   1  -9   42.29    1.78
  -9   1   9   41.48    1.70
   9   1  -9   41.31    1.47
  -9   1   9   39.29    1.75
  -9   1   9   39.39    1.64
  -9   1   9   39.83    2.17
  -7  -1   9    0.96    0.28
  -7  -1   9    0.70    0.43
   7  -1  -9    0.82    0.37
  -7  -1   9    1.75    0.44
  -7   1   9    1.29    0.28
  -7   1   9    0.77    0.43
   7   1  -9    0.96    0.29
  -7   1   9    1.14    0.32
  -5  -1   9   17.80    1.24
  -5  -1   9   19.79    1.06
  -5  -1   9   17.55    1.12
   5  -1  -9   19.81    0.94
   5  -1  -9   19.45    0.69
  -5   1   9   18.54    0.75
   5   1  -9   19.07    1.07
  -5   1   9   18.25    1.21
  -5   1   9   19.29    0.97
  -5   1   9   17.71    1.12
   5   1  -9   20.02    0.87
  -3  -1   9    7.52    0.79
   3  -1  -9    7.90    0.39
  -3  -1   9    7.64    0.72
   3  -1  -9    7.59    0.38
  -3  -1   9    7.90    0.37
   3  -1  -9    8.02    0.43
  -3  -1   9    6.65    0.69
   3  -1  -9    7.19    0.65
   3   1  -9    7.41    0.73
  -3   1   9    7.83    0.37
  -3   1   9    7.59    0.71
  -3   1   9    7.15    0.75
   3   1  -9    7.09    0.49
   3   1  -9    7.69    0.56
  -3   1   9    8.63    0.66
   3   1  -9    8.31    0.35
   1  -1  -9    2.69    0.37
  -1  -1   9    1.52    0.39
  -1  -1   9    1.91    0.41
   1  -1  -9    2.15    0.26
   1  -1  -9    2.04    0.25
  -1  -1   9    1.31    0.39
   1  -1  -9    2.03    0.41
   1   1  -9    1.87    0.22
   1   1  -9    1.97    0.34
  -1   1   9    2.22    0.41
   1   1  -9    1.64    0.40
  -1   1   9    2.42    0.47
   1   1  -9    1.75    0.27
  -1   1   9    1.83    0.41
   1  -1   9   53.22    2.09
   1  -1   9   49.46    2.04
   1  -1   9   49.11    2.06
  -1  -1  -9   44.35    1.72
  -1  -1  -9   48.92    1.94
   1   1   9   49.62    2.02
   1   1   9   49.70    2.06
  -1   1  -9   47.44    1.77
   1   1   9   54.77    2.07
  -1   1  -9   49.05    2.03
   3  -1   9   16.04    1.03
   3  -1   9   15.47    0.97
  -3  -1  -9   16.65    1.04
   3  -1   9   16.33    1.20
  -3  -1  -9   15.83    0.78
  -3   1  -9   16.49    1.10
   3   1   9   16.27    0.97
  -3   1  -9   16.48    0.82
   3   1   9   17.65    1.15
  -5  -1  -9   54.59    2.00
  -5  -1  -9   55.31    2.34
   5  -1   9   55.05    2.29
  -5   1  -9   53.72    2.03
   5   1   9   57.96    2.43
  -5   1  -9   54.43    2.34
   5   1   9   52.60    2.27
   7  -1   9   36.21    1.79
  -7  -1  -9   36.26    1.52
  -7  -1  -9   36.08    1.89
  -7   1  -9   36.43    1.55
   7   1   9   36.04    1.78
  -7   1  -9   38.25    1.94
  -9  -1  -9   14.68    1.48
   9  -1   9   16.41    1.21
  -9  -1  -9   15.66    0.95
   9   1   9   14.83    1.18
  -9   1  -9   15.33    0.95
  -9   1  -9   14.04    1.39
  11  -1   9    3.45    0.67
 -11  -1  -9    3.61    0.57
 -11  -1  -9    5.75    1.00
 -11   1  -9    3.53    0.96
 -11   1  -9    3.54    0.56
  11   1   9    2.46    0.66
 -13  -1  -9   25.01    2.15
  13  -1   9   24.02    1.64
 -13  -1  -9   23.68    1.41
 -13   1  -9   23.90    2.18
 -13   1  -9   23.96    1.43
  13   1   9   24.40    1.62
  15  -1   9    2.00    0.72
 -15  -1  -9    1.40    0.60
 -15  -1  -9    1.16    1.22
 -15   1  -9    1.66    0.56
 -15   1  -9    0.97    1.19
  15   1   9    0.92    0.66
 -17  -1  -9    4.62    1.82
  17  -1   9    2.92    0.98
 -17   1  -9    3.74    3.16
  17   1   9    1.27    0.84
 -19  -1  -9    6.08    1.05
 -19   1  -9    6.39    2.19
 -19   1  -9    3.68    1.05
 -20  -2   9    4.37    1.17
 -20  -2   9    3.62    1.45
 -20  -2   9    1.81    1.69
 -20   2   9    4.93    1.32
 -20   2   9    1.79    1.59
 -18  -2   9   10.32    1.82
 -18  -2   9    6.02    1.40
 -18  -2   9    9.64    1.46
 -18   2   9    7.90    1.23
 -18   2   9    7.32    1.85
 -18   2   9   10.07    1.39
 -16  -2   9    3.69    1.12
 -16  -2   9    3.99    1.07
 -16  -2   9    3.77    0.76
 -16   2   9    4.97    0.81
 -16   2   9    5.86    1.37
 -16   2   9    4.58    0.94
 -14  -2   9   73.93    3.31
 -14  -2   9   74.58    2.90
 -14  -2   9   72.44    3.62
  14   2  -9   72.66    2.44
 -14   2   9   67.72    3.68
 -14   2   9   74.51    2.80
 -14   2   9   70.47    3.05
 -12  -2   9   24.22    1.33
 -12  -2   9   25.95    1.62
 -12  -2   9   26.10    1.96
 -12   2   9   26.03    1.98
  12   2  -9   24.13    1.06
 -12   2   9   24.35    1.43
 -12   2   9   25.75    1.27
 -10  -2   9    0.61    0.46
 -10  -2   9    0.52    0.55
 -10  -2   9    0.29    0.31
 -10   2   9    0.29    0.51
 -10   2   9    0.81    0.62
 -10   2   9    0.55    0.37
  10   2  -9    0.17    0.69
  10   2  -9    0.29    0.24
  -8  -2   9   11.79    1.15
  -8  -2   9   11.75    0.97
  -8  -2   9   11.70    0.75
   8   2  -9   11.51    1.02
   8   2  -9   10.68    0.62
  -8   2   9   10.64    0.65
  -8   2   9   11.89    1.13
  -8   2   9   11.67    0.76
   8   2  -9   11.70    0.76
  -6  -2   9  114.33    4.37
  -6  -2   9  115.86    4.18
   6  -2  -9  121.16    3.65
  -6  -2   9  124.93    4.09
   6   2  -9  118.37    3.80
   6   2  -9  114.52    4.02
   6   2  -9  115.10    3.77
  -6   2   9  118.32    4.19
  -6   2   9  118.22    4.31
  -6   2   9  119.39    3.88
   4  -2  -9   13.30    0.56
  -4  -2   9   12.89    0.92
   4  -2  -9   13.18    0.64
  -4  -2   9   12.95    0.96
  -4  -2   9   12.74    1.04
   4   2  -9   12.57    0.76
   4   2  -9   12.47    0.67
  -4   2   9   13.72    0.57
  -4   2   9   12.62    0.95
  -4   2   9   12.87    0.77
   4   2  -9   13.78    0.93
  -4   2   9   12.51    0.92
   2  -2  -9    6.06    0.32
  -2  -2   9    7.24    0.76
  -2  -2   9    6.10    0.68
   2  -2  -9    6.30    0.38
  -2  -2   9    6.56    0.74
   2  -2  -9    6.14    0.30
   2  -2  -9    6.03    0.58
  -2   2   9    5.71    0.59
   2   2  -9    6.12    0.32
   2   2  -9    5.83    0.46
  -2   2   9    6.29    0.66
  -2   2   9    6.73    0.30
   2   2  -9    5.95    0.70
   0  -2  -9    3.24    0.74
   0  -2   9    2.53    0.46
   0  -2   9    2.83    0.49
   0  -2  -9    3.21    0.30
   0  -2   9    3.87    0.60
   0  -2  -9    3.32    0.37
   0   2   9    3.92    0.56
   0   2  -9    3.80    0.57
   0   2   9    2.60    0.46
   0   2   9    4.04    0.59
   0   2  -9    3.58    0.39
   2  -2   9   24.72    1.40
  -2  -2  -9   24.25    1.01
   2  -2   9   24.88    1.32
   2  -2   9   26.07    1.33
  -2  -2  -9   25.94    1.37
  -2  -2  -9   24.50    1.01
   2   2   9   24.56    1.17
   2   2   9   26.30    1.32
  -2   2  -9   24.24    1.33
  -2   2  -9   25.35    1.10
  -4  -2  -9  175.00    5.42
  -4  -2  -9  166.40    5.68
  -4  -2  -9  173.87    5.66
  -4  -2  -9  165.93    5.41
   4  -2   9  170.73    5.74
   4  -2   9  172.88    5.78
  -4   2  -9  173.22    5.81
   4   2   9  176.49    5.81
   4   2   9  176.84    5.80
  -4   2  -9  173.02    5.52
   4   2   9  171.70    5.52
   6  -2   9    0.95    0.38
  -6  -2  -9    0.62    0.49
  -6  -2  -9    0.67    0.26
   6   2   9    0.84    0.37
  -6   2  -9    0.46    0.49
  -6   2  -9    0.24    0.24
   6   2   9    1.29    0.70
   8  -2   9    4.02    0.71
  -8  -2  -9    3.48    0.33
  -8  -2  -9    3.82    0.54
  -8  -2  -9    3.19    0.73
  -8   2  -9    2.43    0.64
   8   2   9    2.95    0.53
  -8   2  -9    3.21    0.36
  -8   2  -9    3.60    0.50
  10  -2   9   77.03    3.05
 -10  -2  -9   73.65    2.77
  10   2   9   76.61    3.06
 -10   2  -9   72.15    2.79
 -10   2  -9   72.50    3.26
 -12  -2  -9   38.34    1.80
 -12  -2  -9   36.22    2.41
  12  -2   9   41.87    2.11
  12   2   9   40.94    2.08
 -12   2  -9   40.35    2.43
 -12   2  -9   39.03    1.84
 -14  -2  -9   -0.23    1.14
 -14   2  -9   -1.11    0.97
  16  -2   9   12.96    1.53
 -16  -2  -9   12.71    1.31
 -16  -2  -9   12.20    2.10
 -16   2  -9   14.61    2.06
 -16   2  -9   14.43    1.32
  16   2   9   15.45    1.53
 -18  -2  -9    8.56    1.14
 -18   2  -9    6.27    1.01
 -18   2  -9    7.74    2.04
 -21  -3   9    4.29    2.11
 -21  -3   9    2.99    1.79
 -21  -3   9    2.67    1.22
 -21   3   9    3.74    1.35
 -21   3   9    1.77    2.06
 -19  -3   9   47.47    2.59
 -19  -3   9   50.62    3.33
 -19  -3   9   46.88    3.63
 -19   3   9   40.49    2.70
 -19   3   9   47.51    3.76
 -17  -3   9   36.67    2.57
 -17  -3   9   38.93    3.07
 -17  -3   9   37.86    2.88
 -17   3   9   34.16    3.04
 -17   3   9   31.72    2.17
 -15  -3   9   28.81    1.64
 -15  -3   9   24.56    2.17
 -15   3   9   24.42    1.77
 -15   3   9   28.86    1.57
  15   3  -9   29.13    1.31
 -15   3   9   27.94    2.47
 -13  -3   9    7.90    0.86
 -13  -3   9    7.47    1.21
 -13  -3   9    8.90    1.20
 -13   3   9    7.76    0.83
 -13   3   9    6.04    1.21
  13   3  -9    7.97    0.70
 -13   3   9    7.49    0.96
 -11  -3   9   29.63    2.02
 -11  -3   9   29.13    1.47
 -11  -3   9   31.04    1.80
 -11   3   9   30.97    1.37
  11   3  -9   31.98    1.30
 -11   3   9   29.53    1.48
 -11   3   9   30.80    2.05
  -9  -3   9  135.15    4.69
  -9  -3   9  159.10    5.51
  -9  -3   9  135.72    5.25
  -9   3   9  138.69    5.24
   9   3  -9  139.91    4.52
  -9   3   9  135.29    4.48
  -9   3   9  143.39    4.58
   9   3  -9  141.90    4.84
  -7  -3   9  105.00    3.71
  -7  -3   9  102.31    4.03
  -7   3   9  104.19    3.93
  -7   3   9  104.11    3.27
   7   3  -9  104.93    3.68
  -7   3   9  102.05    3.42
   7   3  -9  100.34    3.39
  -5  -3   9   53.77    2.22
  -5  -3   9   54.25    2.44
  -5  -3   9   54.46    2.27
   5  -3  -9   54.81    1.81
  -5   3   9   56.72    2.29
   5   3  -9   54.95    1.96
  -5   3   9   56.39    1.98
  -5   3   9   53.91    1.82
   5   3  -9   49.73    2.20
  -5   3   9   54.98    2.32
  -3  -3   9   60.81    2.38
   3  -3  -9   59.42    1.99
  -3  -3   9   59.91    2.39
  -3  -3   9   61.50    2.57
  -3   3   9   60.00    2.17
   3   3  -9   60.32    2.13
   3   3  -9   61.51    2.38
  -3   3   9   63.15    1.93
  -3   3   9   58.25    2.38
  -3   3   9   54.82    2.37
   3   3  -9   61.97    1.85
   1  -3  -9  159.51    4.81
  -1  -3   9  147.19    5.14
   1  -3  -9  145.95    4.78
  -1  -3   9  149.97    5.17
   1  -3  -9  151.86    5.07
  -1  -3   9  156.92    5.32
  -1  -3   9  153.48    4.65
  -1   3   9  167.34    4.63
   1   3  -9  155.03    4.91
   1   3  -9  154.74    5.18
  -1   3   9  155.97    5.01
  -1   3   9  150.13    5.17
  -1   3   9  151.77    5.04
   1  -3   9   51.81    2.25
   1  -3   9   53.92    1.65
   1  -3   9   50.18    2.23
   1  -3   9   53.79    2.19
  -1  -3  -9   56.10    2.12
  -1  -3  -9   55.89    1.78
  -1  -3  -9   53.11    1.86
  -1  -3  -9   56.97    2.02
  -1  -3  -9   52.14    1.76
  -1   3  -9   50.60    1.95
   1   3   9   53.51    2.00
   1   3   9   54.48    2.14
  -1   3  -9   51.75    2.21
   1   3   9   54.29    2.20
  -3  -3  -9    7.97    0.53
  -3  -3  -9    8.36    0.53
   3  -3   9    9.21    0.79
   3  -3   9    7.91    0.76
  -3  -3  -9    8.96    0.87
  -3   3  -9    8.18    0.89
   3   3   9    7.81    0.77
  -3   3  -9    8.77    0.62
   3   3   9    8.76    0.61
   3   3   9   10.13    0.91
  -5  -3  -9  104.02    3.50
  -5  -3  -9   99.60    3.34
   5  -3   9  100.37    3.68
   5  -3   9   99.47    3.68
  -5  -3  -9   99.04    3.63
  -5  -3  -9   99.97    3.34
   5   3   9  100.57    3.78
  -5   3  -9  100.56    3.80
  -5   3  -9  100.79    3.45
   5   3   9  104.56    3.71
  -7  -3  -9   82.40    2.91
  -7  -3  -9   90.11    3.75
   7  -3   9   85.78    3.24
  -7  -3  -9   81.56    2.89
  -7  -3  -9   83.28    2.57
  -7  -3  -9   82.83    3.28
  -7  -3  -9   87.08    2.58
  -7   3  -9   83.17    2.62
  -7   3  -9   87.43    3.42
   7   3   9   81.09    3.21
  -7   3  -9   79.36    3.34
   9  -3   9   26.46    1.54
  -9  -3  -9   24.46    1.75
  -9  -3  -9   26.49    1.30
  -9   3  -9   25.99    1.33
  -9   3  -9   28.40    1.81
   9   3   9   27.75    1.56
 -11  -3  -9    1.04    1.04
 -11  -3  -9    0.71    0.38
  11  -3   9    0.02    0.47
 -11   3  -9    0.38    0.74
 -11   3  -9    0.55    0.35
  11   3   9    0.09    0.45
 -13  -3  -9   60.75    3.20
 -13  -3  -9   61.46    2.53
  13  -3   9   60.05    2.77
 -13   3  -9   60.37    2.56
  13   3   9   59.56    2.77
 -13   3  -9   64.39    3.22
 -15  -3  -9   58.47    2.62
  15  -3   9   59.72    2.87
  15   3   9   61.41    2.90
 -15   3  -9   58.17    2.63
 -15   3  -9   67.95    3.62
 -17  -3  -9   22.58    1.70
 -17  -3  -9   23.00    1.48
  17  -3   9   20.42    1.87
 -17   3  -9   23.39    1.67
 -17   3  -9   20.83    2.93
  17   3   9   22.51    1.87
 -19  -3  -9   -0.65    0.67
 -19  -3  -9    1.10    0.88
 -19   3  -9   -0.29    0.84
 -19   3  -9    1.25    1.90
 -20  -4   9   77.90    3.46
 -20  -4   9   65.49    4.10
 -20  -4   9   63.86    4.38
 -20   4   9   63.13    3.36
 -20   4   9   63.74    4.60
 -18  -4   9   13.44    1.55
 -18  -4   9   10.66    1.78
 -18  -4   9   11.76    1.67
 -18   4   9   10.29    1.55
 -18   4   9   13.63    2.16
 -16  -4   9   69.81    3.51
 -16  -4   9   62.87    3.30
 -16  -4   9   68.44    3.77
 -16   4   9   64.48    2.93
 -16   4   9   62.15    3.83
  16   4  -9   70.51    2.51
 -14  -4   9   44.45    2.76
 -14  -4   9   41.82    2.48
 -14  -4   9   42.98    2.05
 -14   4   9   38.61    1.98
  14   4  -9   41.51    1.73
 -14   4   9   43.13    1.86
 -14   4   9   43.91    2.83
 -12  -4   9   76.56    3.61
 -12  -4   9   79.32    3.41
 -12  -4   9   77.80    3.00
  12   4  -9   78.84    2.78
 -12   4   9   80.22    2.79
 -12   4   9   79.86    3.74
 -12   4   9   75.41    2.92
 -10  -4   9   15.54    1.48
 -10  -4   9   17.28    1.06
 -10  -4   9   17.49    1.32
 -10   4   9   16.79    0.85
 -10   4   9   19.02    1.59
 -10   4   9   16.77    0.95
  10   4  -9   15.97    1.42
  10   4  -9   16.79    0.93
  -8  -4   9   72.37    2.89
  -8  -4   9   70.62    3.14
  -8   4   9   72.45    2.40
   8   4  -9   74.96    2.88
   8   4  -9   72.11    2.55
  -8   4   9   71.45    3.08
  -8   4   9   71.00    2.46
  -6  -4   9  188.84    6.24
  -6  -4   9  185.15    6.53
  -6  -4   9  188.28    6.30
  -6   4   9  182.88    5.90
  -6   4   9  190.15    6.38
  -6   4   9  184.12    6.27
   6   4  -9  193.43    6.26
   6   4  -9  193.74    5.97
   4  -4  -9  314.23    9.92
  -4  -4   9  334.69   10.36
  -4  -4   9  334.31   10.64
  -4  -4   9  325.22   10.37
   4   4  -9  349.36   10.40
  -4   4   9  329.70    9.88
  -4   4   9  329.25   10.36
  -4   4   9  325.34   10.35
  -4   4   9  325.16   10.03
   4   4  -9  317.26   10.07
  -2  -4   9    0.30    0.45
  -2  -4   9    1.47    0.42
   2  -4  -9    1.11    0.23
  -2  -4   9    1.06    0.16
  -2  -4   9    0.44    0.38
  -2   4   9    1.59    0.20
   2   4  -9    0.83    0.25
  -2   4   9    0.56    0.33
  -2   4   9    0.93    0.33
   2   4  -9    1.07    0.20
  -2   4   9    1.58    0.37
   2   4  -9    1.01    0.42
   0  -4  -9  212.85    6.75
   0  -4   9  223.61    7.28
   0  -4  -9  224.47    6.72
   0  -4   9  221.22    7.13
   0  -4   9  214.18    6.60
   0   4  -9  216.58    7.17
   0   4  -9  223.27    6.91
   0   4   9  222.44    6.99
   0   4   9  220.89    7.13
   0   4   9  215.70    6.88
   2  -4   9  271.33    8.65
   2  -4   9  273.61    8.78
  -2  -4  -9  287.47    8.39
  -2  -4  -9  280.22    8.41
   2  -4   9  268.83    8.10
  -2  -4  -9  259.45    8.16
  -2  -4  -9  264.21    8.30
   2   4   9  269.90    8.66
   2   4   9  267.26    8.30
  -2   4  -9  267.05    8.74
  -2   4  -9  269.53    8.44
  -4  -4  -9   66.89    2.38
  -4  -4  -9   71.51    2.92
  -4  -4  -9   72.86    2.48
   4  -4   9   67.10    2.74
  -4  -4  -9   66.80    2.32
   4  -4   9   68.21    2.69
  -4   4  -9   69.16    2.51
   4   4   9   67.69    2.69
   4   4   9   70.72    2.79
  -6  -4  -9    4.99    0.30
  -6  -4  -9    5.52    0.51
  -6  -4  -9    6.46    0.97
  -6  -4  -9    5.71    0.53
  -6  -4  -9    5.38    0.84
   6  -4   9    5.94    0.77
  -6   4  -9    5.91    0.58
   6   4   9    5.26    0.83
  -6   4  -9    5.43    0.79
   6   4   9    3.98    0.63
  -8  -4  -9   48.24    1.62
   8  -4   9   49.11    2.23
  -8  -4  -9   49.77    2.34
  -8  -4  -9   48.76    1.91
  -8  -4  -9   51.48    1.95
  -8   4  -9   50.57    2.45
  -8   4  -9   48.49    2.02
   8   4   9   49.38    2.23
  10  -4   9  139.74    4.86
 -10  -4  -9  131.11    4.48
 -10  -4  -9  135.56    4.53
 -10  -4  -9  127.92    4.96
 -10   4  -9  133.39    4.61
  10   4   9  135.86    4.86
 -10   4  -9  135.13    5.11
 -12  -4  -9   94.12    4.13
 -12  -4  -9   87.31    3.32
  12  -4   9   97.30    3.76
 -12  -4  -9   91.13    3.41
 -12   4  -9   92.49    3.48
 -12   4  -9   97.72    4.10
  12   4   9   96.03    3.75
  14  -4   9   19.91    1.98
 -14  -4  -9   19.35    1.50
 -14   4  -9   25.04    2.27
 -14   4  -9   22.20    1.44
  14   4   9   20.08    1.60
 -16  -4  -9   38.42    2.06
  16  -4   9   39.83    2.38
 -16  -4  -9   38.12    1.90
  16   4   9   41.32    2.39
 -16   4  -9   38.51    2.10
 -16   4  -9   38.17    3.23
 -18  -4  -9  138.11    4.92
 -18  -4  -9  135.99    5.12
 -18   4  -9  131.70    6.22
 -18   4  -9  143.97    5.20
 -19  -5   9   79.38    3.50
 -19  -5   9   79.86    4.58
 -19  -5   9   75.35    4.29
 -19   5   9   67.17    3.40
 -19   5   9   75.64    4.80
 -17  -5   9   83.02    4.32
 -17  -5   9   81.28    3.43
 -17  -5   9   86.15    4.12
  17   5  -9   84.83    3.03
 -17   5   9   73.77    3.33
 -17   5   9   72.44    4.43
 -15  -5   9   23.01    1.56
 -15  -5   9   25.71    2.30
 -15  -5   9   20.47    3.09
  15   5  -9   23.97    1.33
 -15   5   9   18.36    2.12
 -13  -5   9   -0.62    0.64
 -13  -5   9    0.15    0.42
 -13  -5   9   -0.68    0.71
 -13   5   9    0.40    0.48
 -13   5   9   -0.26    0.41
  13   5  -9    0.49    0.39
 -13   5   9   -0.52    0.86
 -11  -5   9  213.93    6.85
 -11  -5   9  209.49    7.49
 -11  -5   9  208.80    7.24
 -11   5   9  203.81    7.49
  11   5  -9  204.82    8.07
 -11   5   9  210.36    6.48
 -11   5   9  204.17    6.59
  11   5  -9  204.92    6.64
  -9  -5   9  217.00    6.89
  -9  -5   9  210.74    7.45
  -9   5   9  204.63    7.35
  -9   5   9  203.47    6.49
   9   5  -9  221.35    7.13
   9   5  -9  213.06    6.73
  -7  -5   9   12.46    1.03
  -7  -5   9   10.75    1.20
   7  -5  -9   12.71    0.67
  -7   5   9   12.02    1.12
   7   5  -9   11.95    1.17
   7   5  -9   12.52    0.79
  -7   5   9   12.37    0.99
  -7   5   9   10.87    0.62
  -5  -5   9    1.17    0.45
  -5  -5   9    1.61    0.54
   5  -5  -9    1.03    0.24
  -5   5   9    1.03    0.40
   5   5  -9    0.79    0.27
  -5   5   9    0.48    0.25
  -5   5   9    0.91    0.43
   5   5  -9    0.11    0.45
  -3  -5   9  149.11    4.68
  -3  -5   9  149.73    5.11
  -3  -5   9  143.52    5.32
   3  -5  -9  149.51    4.73
  -3   5   9  153.21    4.66
  -3   5   9  149.82    4.81
  -3   5   9  148.70    5.10
   3   5  -9  147.71    4.88
   3   5  -9  156.77    4.53
  -3   5   9  149.02    5.00
   3   5  -9  159.77    5.22
  -1  -5   9  372.79   11.49
  -1  -5   9  384.05   11.97
   1  -5  -9  378.69   11.61
  -1  -5   9  384.34   12.21
   1   5  -9  397.02   11.50
  -1   5   9  387.23   11.78
  -1   5   9  381.61   11.96
   1   5  -9  385.67   11.78
   1   5  -9  384.55   12.07
  -1   5   9  381.60   11.73
  -1  -5  -9   41.75    1.53
  -1  -5  -9   41.42    1.34
   1  -5   9   38.89    1.80
   1  -5   9   40.31    1.36
   1  -5   9   40.32    1.95
  -1  -5  -9   41.47    1.51
  -1   5  -9   40.31    1.64
   1   5   9   39.28    1.79
  -1   5  -9   39.79    1.96
   1   5   9   41.16    1.77
   1   5   9   41.33    1.50
   3  -5   9    7.65    0.39
   3  -5   9    7.55    0.82
  -3  -5  -9    7.44    0.46
  -3  -5  -9    8.68    0.56
   3  -5   9    7.98    0.80
  -3  -5  -9    7.27    0.87
  -3  -5  -9    8.11    0.38
   3   5   9    6.55    0.94
  -3   5  -9    7.72    0.64
  -3   5  -9    5.42    0.79
   3   5   9    7.90    0.77
  -5  -5  -9  172.67    5.64
  -5  -5  -9  172.89    5.54
  -5  -5  -9  188.03    5.49
   5  -5   9  177.27    6.08
  -5  -5  -9  176.62    5.36
   5  -5   9  174.03    5.93
  -5  -5  -9  181.61    5.89
  -5   5  -9  173.13    6.13
   5   5   9  173.47    5.94
  -5   5  -9  179.33    5.78
   5   5   9  182.81    6.12
   7  -5   9  307.58    9.53
  -7  -5  -9  303.42    9.51
  -7  -5  -9  298.65    9.18
  -7  -5  -9  293.57    9.13
  -7  -5  -9  288.24    8.88
  -7   5  -9  286.69    9.70
  -7   5  -9  295.06    9.32
   7   5   9  292.43    9.51
  -9  -5  -9   13.85    1.50
  -9  -5  -9   14.41    0.93
  -9  -5  -9   15.19    0.91
   9  -5   9   16.09    1.20
  -9  -5  -9   14.69    0.71
  -9   5  -9   14.08    0.99
   9   5   9   14.56    1.15
  -9   5  -9   15.38    1.47
 -11  -5  -9   27.77    1.18
  11  -5   9   29.28    1.74
 -11  -5  -9   29.13    1.41
 -11  -5  -9   28.33    1.45
 -11   5  -9   30.07    2.08
 -11   5  -9   29.65    1.53
  11   5   9   28.61    1.73
  13  -5   9   28.42    1.78
 -13  -5  -9   25.00    1.51
  13   5   9   27.26    1.75
 -13   5  -9   24.81    2.26
 -15  -5  -9  121.59    4.43
 -15  -5  -9  119.37    4.28
  15  -5   9  124.51    4.75
 -15   5  -9  116.72    6.51
  15   5   9  121.91    4.72
 -15   5  -9  120.63    4.51
 -17  -5  -9   36.70    2.12
 -17  -5  -9   33.40    1.86
 -17   5  -9   33.59    3.33
 -17   5  -9   34.02    2.08
 -19  -5  -9    6.73    1.18
 -19  -5  -9    4.75    0.86
 -19   5  -9    5.39    1.09
 -19   5  -9    7.36    2.17
 -20  -6   9   37.29    2.67
 -20  -6   9   38.25    3.93
 -20  -6   9   45.05    3.73
 -20   6   9   40.76    2.47
 -20   6   9   52.34    4.35
 -18  -6   9    9.27    1.86
 -18  -6   9    7.44    1.67
 -18  -6   9   10.74    1.59
 -18   6   9    7.11    1.87
 -18   6   9    8.30    1.14
  18   6  -9   12.38    1.42
 -16  -6   9   56.06    2.65
 -16  -6   9   52.53    3.43
 -16  -6   9   54.36    3.31
  16   6  -9   58.95    2.57
 -16   6   9   50.14    3.65
 -16   6   9   55.28    2.44
 -14  -6   9   82.30    5.54
 -14  -6   9   89.58    4.01
 -14  -6   9   89.58    3.50
 -14   6   9   85.00    3.19
  14   6  -9   91.22    3.24
 -14   6   9   84.77    4.31
 -12  -6   9  102.15    4.13
 -12  -6   9   96.26    3.65
 -12  -6   9   96.43    4.27
 -12   6   9   94.38    3.31
 -12   6   9   92.84    4.28
  12   6  -9  100.92    3.49
 -10  -6   9    0.49    0.64
 -10  -6   9    0.93    0.40
  10   6  -9    0.36    0.35
  10   6  -9    2.37    0.90
 -10   6   9    0.53    0.28
 -10   6   9    0.21    0.66
  -8  -6   9   89.11    3.74
   8   6  -9   90.11    3.55
  -8   6   9   85.71    3.35
   8   6  -9   85.14    3.11
  -8   6   9   90.68    2.85
  -8   6   9   87.50    3.59
   6  -6  -9  110.58    3.51
  -6  -6   9  110.72    3.94
  -6  -6   9  106.21    4.23
  -6   6   9  108.10    3.90
   6   6  -9  106.86    3.69
  -6   6   9  105.07    3.95
  -6   6   9  111.48    3.37
   6   6  -9  109.89    4.05
  -6   6   9   99.53    3.40
  -4  -6   9   88.57    2.96
   4  -6  -9   89.18    2.98
  -4  -6   9   90.97    3.63
  -4  -6   9   88.16    3.33
  -4   6   9   88.75    3.32
   4   6  -9   88.64    3.15
   4   6  -9   91.46    3.49
  -4   6   9  101.33    3.01
  -4   6   9   86.51    2.99
   2  -6  -9   20.11    0.83
   2  -6  -9   19.40    0.90
  -2  -6   9   19.20    1.21
  -2  -6   9   19.16    1.37
  -2   6   9   19.22    1.01
  -2   6   9   20.68    1.00
   2   6  -9   19.86    0.79
  -2   6   9   21.14    1.01
  -2   6   9   21.47    1.19
   2   6  -9   19.88    1.03
   2   6  -9   20.54    1.38
   0  -6   9   44.73    1.54
   0  -6  -9   45.64    1.67
   0  -6   9   43.74    2.13
   0  -6  -9   44.85    1.52
   0  -6   9   43.71    1.95
   0   6  -9   46.16    1.82
   0   6  -9   44.01    2.18
   0   6   9   45.84    1.64
   0   6   9   46.20    1.95
   0   6   9   44.38    1.84
  -2  -6  -9  236.29    7.27
  -2  -6  -9  234.28    7.16
   2  -6   9  235.44    7.20
   2  -6   9  235.30    7.67
   2  -6   9  230.27    7.86
  -2  -6  -9  231.07    7.36
  -2   6  -9  238.53    7.53
   2   6   9  235.46    7.67
   2   6   9  248.24    7.70
  -2   6  -9  249.26    7.91
  -4  -6  -9   95.41    3.24
  -4  -6  -9   93.77    3.00
   4  -6   9   92.87    3.03
   4  -6   9   96.47    3.52
  -4  -6  -9   97.86    3.37
   4  -6   9   93.64    3.66
  -4  -6  -9   91.67    3.30
   4   6   9   95.24    3.52
  -4   6  -9  100.73    3.77
  -4   6  -9   98.35    3.39
   4   6   9  102.00    3.71
   6  -6   9   16.75    1.16
  -6  -6  -9   15.27    0.88
  -6  -6  -9   16.82    1.32
  -6  -6  -9   15.78    0.83
  -6  -6  -9   15.29    0.68
   6  -6   9   15.49    0.71
  -6   6  -9   15.80    0.98
   6   6   9   15.36    1.11
  -6   6  -9   16.27    1.36
   8  -6   9   60.42    2.53
  -8  -6  -9   57.26    2.16
  -8  -6  -9   56.65    1.96
  -8  -6  -9   59.19    2.21
   8   6   9   55.65    2.48
  -8   6  -9   59.87    2.78
  -8   6  -9   57.66    2.33
  10  -6   9  195.30    6.50
 -10  -6  -9  187.90    6.14
 -10  -6  -9  179.65    5.86
 -10  -6  -9  187.12    6.15
  10   6   9  193.28    6.51
 -10   6  -9  191.14    6.32
 -10   6  -9  194.99    6.84
 -12  -6  -9   57.06    2.32
 -12  -6  -9   47.87    2.26
 -12  -6  -9   55.00    2.01
  12  -6   9   58.25    2.62
  12   6   9   54.71    2.58
 -12   6  -9   56.91    2.42
 -12   6  -9   59.08    3.05
 -14  -6  -9    0.37    0.57
  14  -6   9   -0.47    0.65
 -14  -6  -9   -0.49    0.42
 -14   6  -9    1.01    1.22
 -14   6  -9    0.09    0.52
  14   6   9   -0.89    0.65
  16  -6   9   22.37    1.94
 -16  -6  -9   23.92    1.47
 -16  -6  -9   19.52    1.65
  16   6   9   25.60    1.86
 -16   6  -9   22.18    2.82
 -16   6  -9   22.68    1.69
 -18  -6  -9   52.93    2.73
 -18  -6  -9   52.82    2.46
 -18   6  -9   55.83    4.13
 -18   6  -9   53.86    2.76
 -19  -7   9   12.98    1.89
 -19  -7   9   13.22    2.12
 -19  -7   9   19.85    2.51
 -19   7   9   12.36    2.30
 -19   7   9   15.54    1.58
 -17  -7   9   71.56    3.93
 -17  -7   9   67.99    3.16
 -17  -7   9   67.14    4.06
 -17   7   9   70.89    4.33
  17   7  -9   71.63    2.88
 -17   7   9   61.78    2.74
 -15  -7   9   64.94    3.62
 -15  -7   9   66.11    3.52
 -15  -7   9   65.83    2.87
 -15   7   9   64.61    3.83
 -15   7   9   60.82    2.45
  15   7  -9   55.70    2.88
 -13  -7   9   13.85    1.24
 -13  -7   9   16.23    1.97
  13   7  -9   13.58    1.15
 -13   7   9   13.99    0.87
 -13   7   9   13.85    1.90
 -11  -7   9  140.06    4.87
 -11  -7   9  140.45    5.48
  11   7  -9  136.43    4.72
  11   7  -9  139.17    5.47
 -11   7   9  132.97    5.44
  -9  -7   9   95.70    4.07
   9   7  -9  101.83    3.47
   9   7  -9   99.06    3.98
  -9   7   9   93.55    3.63
  -9   7   9   88.60    3.90
   7  -7  -9   18.56    0.95
  -7  -7   9   18.88    1.33
  -7  -7   9   20.67    1.61
  -7   7   9   20.79    1.46
   7   7  -9   19.48    1.10
   7   7  -9   20.36    1.64
  -7   7   9   18.33    1.22
  -5  -7   9   17.57    0.86
  -5  -7   9   19.71    1.24
  -5  -7   9   19.83    1.46
   5  -7  -9   18.09    0.89
  -5   7   9   17.92    1.20
  -5   7   9   16.32    0.77
   5   7  -9   17.31    1.03
  -5   7   9   18.03    1.14
   3  -7  -9   56.02    1.97
   3  -7  -9   56.65    2.04
  -3  -7   9   58.43    2.67
  -3  -7   9   58.53    1.99
  -3  -7   9   59.00    2.39
  -3   7   9   56.72    2.03
   3   7  -9   57.12    2.59
   3   7  -9   60.03    1.84
  -3   7   9   54.41    2.16
   3   7  -9   55.62    2.20
  -3   7   9   56.53    2.32
  -1  -7   9   95.73    3.71
   1  -7  -9   92.54    3.13
  -1  -7   9   93.54    3.42
  -1  -7   9   92.65    3.02
   1   7  -9   96.03    3.31
  -1   7   9   91.95    3.05
  -1   7   9   93.40    3.25
  -1   7   9   92.52    3.39
   1   7  -9   97.41    3.06
   1   7  -9   90.76    3.62
   1  -7   9  119.83    3.82
  -1  -7  -9  122.56    3.97
  -1  -7  -9  119.27    3.79
   1  -7   9  121.83    4.51
   1  -7   9  121.18    4.22
   1   7   9  118.91    4.21
  -1   7  -9  122.04    4.13
  -1   7  -9  124.61    4.49
   1   7   9  120.26    4.21
  -3  -7  -9    3.79    0.38
   3  -7   9    2.89    0.56
   3  -7   9    3.61    0.37
   3  -7   9    3.72    0.61
  -3  -7  -9    3.64    0.47
   3   7   9    2.51    0.66
   3   7   9    3.64    0.60
  -3   7  -9    3.89    0.55
  -3   7  -9    3.18    0.71
   5  -7   9  106.14    3.43
  -5  -7  -9  109.80    3.44
  -5  -7  -9  107.77    3.41
  -5  -7  -9  104.52    3.63
   5  -7   9  110.54    3.90
  -5   7  -9  107.19    4.17
   5   7   9  105.90    3.89
  -5   7  -9  110.98    3.80
  -7  -7  -9  182.63    5.72
  -7  -7  -9  178.84    5.85
   7  -7   9  189.89    6.15
  -7  -7  -9  174.38    5.59
  -7   7  -9  178.31    5.98
  -7   7  -9  183.95    6.45
   7   7   9  179.33    6.13
  -9  -7  -9   11.83    0.89
  -9  -7  -9   10.18    0.82
   9  -7   9   11.06    1.14
  -9  -7  -9   11.34    0.71
  -9   7  -9   10.86    1.40
   9   7   9   11.94    1.11
  -9   7  -9   11.33    0.94
 -11  -7  -9    0.32    0.35
 -11  -7  -9    0.58    0.38
 -11  -7  -9   -0.43    0.42
  11  -7   9    0.23    0.60
  11   7   9    0.44    0.54
 -11   7  -9    0.42    0.43
 -11   7  -9    0.50    0.76
 -13  -7  -9   74.20    2.92
 -13  -7  -9   79.86    3.66
  13  -7   9   75.29    3.46
 -13   7  -9   78.76    3.87
 -13   7  -9   73.52    3.08
 -15  -7  -9   36.61    1.87
 -15  -7  -9   39.71    2.07
  15  -7   9   38.70    2.33
 -15   7  -9   38.68    2.09
 -15   7  -9   36.20    2.95
  15   7   9   40.90    2.30
 -17  -7  -9   21.60    1.81
 -17  -7  -9   22.09    1.56
 -17   7  -9   26.57    1.87
 -17   7  -9   23.43    3.16
 -18  -8   9    0.45    0.93
 -18  -8   9    1.74    1.55
 -18  -8   9   -2.52    1.64
  18   8  -9   -0.14    0.90
 -18   8   9   -0.76    0.73
 -18   8   9   -2.08    1.79
 -16  -8   9   23.01    1.78
 -16  -8   9   21.07    2.65
 -16  -8   9   20.66    2.35
  16   8  -9   21.80    1.65
 -16   8   9   20.37    1.27
 -16   8   9   24.98    2.87
 -14  -8   9   44.51    2.96
 -14  -8   9   41.11    2.17
  14   8  -9   40.52    2.06
 -12  -8   9    4.86    1.14
  12   8  -9    4.03    0.68
 -12   8   9    6.97    1.22
 -10  -8   9    0.95    0.76
  10   8  -9    0.40    0.44
  10   8  -9   -0.74    0.97
 -10   8   9   -0.35    0.71
 -10   8   9    0.92    0.54
  -8  -8   9    1.06    0.72
  -8  -8   9    1.08    0.60
   8   8  -9    0.71    0.38
  -8   8   9    2.01    0.68
  -8   8   9    1.68    0.55
   8   8  -9    0.18    0.81
  -6  -8   9  130.66    4.53
  -6  -8   9  129.85    4.17
   6  -8  -9  129.14    4.18
  -6  -8   9  127.69    4.91
  -6   8   9  126.68    4.55
  -6   8   9  122.65    4.45
   6   8  -9  124.30    4.78
   6   8  -9  126.36    4.37
  -4  -8   9   96.05    3.49
  -4  -8   9   97.21    3.88
   4  -8  -9   95.69    3.18
  -4  -8   9   97.09    3.14
   4  -8  -9   93.50    3.11
  -4   8   9   91.99    3.44
  -4   8   9   89.68    3.33
   4   8  -9   93.50    3.74
  -4   8   9   89.78    3.03
   4   8  -9   92.70    3.35
   2  -8  -9    1.25    0.30
  -2  -8   9    1.31    0.57
  -2  -8   9    1.14    0.26
   2  -8  -9    1.40    0.29
  -2  -8   9    1.07    0.46
  -2   8   9    1.04    0.33
   2   8  -9    1.95    0.40
  -2   8   9    1.21    0.36
   2   8  -9    0.52    0.56
  -2   8   9    0.59    0.40
   0  -8   9   54.33    1.91
   0  -8   9   56.07    2.28
   0  -8  -9   55.20    2.03
   0  -8   9   54.29    2.55
   0  -8  -9   54.81    1.90
   0   8  -9   54.91    2.18
   0   8   9   53.41    2.22
   0   8  -9   57.32    2.56
   0   8   9   53.64    2.21
  -2  -8  -9   61.82    2.22
   2  -8   9   60.73    2.69
   2  -8   9   59.42    2.06
  -2  -8  -9   60.76    2.06
   2  -8   9   60.70    2.44
   2   8   9   59.25    2.53
   2   8   9   58.26    2.40
  -2   8  -9   59.50    2.71
  -2   8  -9   61.29    2.36
   4  -8   9   23.64    1.58
  -4  -8  -9   25.50    1.04
   4  -8   9   25.89    1.04
   4  -8   9   26.32    1.42
  -4  -8  -9   24.78    1.19
  -4   8  -9   26.69    1.78
  -4   8  -9   24.48    1.30
   4   8   9   25.22    1.38
   6  -8   9   -0.18    0.43
  -6  -8  -9    0.54    0.28
   6  -8   9    0.71    0.25
  -6  -8  -9    0.21    0.25
  -6  -8  -9    0.11    0.24
  -6   8  -9   -0.28    0.29
  -6   8  -9    1.06    0.62
   6   8   9    0.18    0.40
  -8  -8  -9    0.24    0.38
  -8  -8  -9    0.48    0.31
  -8  -8  -9    0.79    0.34
   8  -8   9    0.18    0.49
  -8   8  -9    0.00    0.36
   8   8   9    0.31    0.46
  -8   8  -9    1.24    0.71
 -10  -8  -9   31.40    1.52
  10  -8   9   31.04    1.82
 -10  -8  -9   31.54    1.36
 -10  -8  -9   31.92    1.53
 -10   8  -9   31.98    2.23
  10   8   9   33.42    1.83
 -10   8  -9   31.94    1.66
 -12  -8  -9  122.96    4.39
 -12  -8  -9  124.00    4.14
 -12  -8  -9  122.47    4.39
  12  -8   9  133.24    4.73
 -12   8  -9  124.12    4.56
  12   8   9  129.73    4.72
 -12   8  -9  128.18    5.24
  14  -8   9    5.89    1.11
 -14  -8  -9    5.97    0.92
 -14  -8  -9    4.56    0.70
 -14   8  -9    3.32    1.42
 -14   8  -9    6.85    0.96
  14   8   9    6.62    1.11
 -16  -8  -9   35.07    2.15
 -16  -8  -9   34.81    1.90
 -16   8  -9   37.23    3.24
 -16   8  -9   36.01    2.18
 -17  -9   9   15.29    2.28
 -17  -9   9   13.25    1.72
 -17   9   9   10.73    2.20
 -15  -9   9    7.20    1.09
 -15  -9   9    9.07    1.74
  15   9  -9    5.11    0.91
 -15   9   9    6.42    1.73
 -13  -9   9    1.95    1.13
  13   9  -9    1.10    0.63
 -13   9   9    2.36    1.21
 -11  -9   9    2.29    1.02
 -11   9   9    2.04    0.97
  11   9  -9    1.60    1.79
 -11   9   9    2.28    0.71
  11   9  -9    1.64    0.57
  -9  -9   9   21.45    1.58
  -9  -9   9   20.14    1.83
   9   9  -9   20.50    2.10
  -9   9   9   20.60    1.43
   9   9  -9   20.84    1.32
  -9   9   9   18.46    1.73
  -7  -9   9   19.58    1.70
  -7  -9   9   19.47    1.41
  -7  -9   9   19.01    1.01
   7  -9  -9   19.38    1.06
   7   9  -9   19.93    1.22
   7   9  -9   18.64    1.74
  -7   9   9   19.42    1.30
  -7   9   9   19.73    1.51
   5  -9  -9    2.21    0.40
   5  -9  -9    1.03    0.32
  -5  -9   9    1.57    0.72
  -5  -9   9    0.88    0.29
  -5  -9   9    1.05    0.56
  -5   9   9    0.81    0.51
   5   9  -9    2.37    0.83
   5   9  -9    0.83    0.38
  -5   9   9    0.93    0.49
   3  -9  -9   28.84    1.18
  -3  -9   9   25.01    1.71
   3  -9  -9   25.65    1.20
  -3  -9   9   25.60    1.14
  -3  -9   9   26.66    1.47
   3   9  -9   26.25    1.77
  -3   9   9   25.90    1.17
  -3   9   9   25.03    1.39
   3   9  -9   26.19    1.35
  -3   9   9   25.40    1.20
  -1  -9   9    7.74    1.09
  -1  -9   9    7.25    0.56
  -1  -9   9    7.98    0.91
   1  -9  -9    7.84    0.66
   1  -9  -9    7.65    0.59
   1   9  -9    8.11    1.14
   1   9  -9    6.73    0.74
  -1   9   9    8.81    0.84
  -1   9   9    6.98    0.81
  -1  -9  -9   18.89    0.98
   1  -9   9   19.73    0.90
   1  -9   9   17.84    1.19
  -1  -9  -9   18.55    0.89
   1  -9   9   17.04    1.36
   1   9   9   18.78    1.16
  -1   9  -9   18.00    1.10
  -1   9  -9   18.92    1.51
   1   9   9   19.11    1.30
   3  -9   9    2.23    0.62
   3  -9   9    2.55    0.35
  -3  -9  -9    2.24    0.42
   3  -9   9    2.38    0.58
  -3  -9  -9    2.60    0.37
  -3   9  -9    2.92    0.78
  -3   9  -9    2.51    0.46
   3   9   9    3.28    0.59
   5  -9   9   25.93    1.51
  -5  -9  -9   27.14    1.16
  -5  -9  -9   28.27    1.32
   5  -9   9   26.47    1.16
  -5   9  -9   29.96    1.92
  -5   9  -9   28.35    1.45
   5   9   9   29.48    1.52
   7  -9   9    1.49    0.58
   7  -9   9    1.54    0.34
  -7  -9  -9    1.72    0.38
  -7  -9  -9    1.36    0.36
  -7  -9  -9    1.59    0.40
  -7   9  -9    1.89    0.81
   7   9   9    1.42    0.54
  -7   9  -9    1.89    0.47
   9  -9   9   20.38    1.48
  -9  -9  -9   21.22    1.05
  -9  -9  -9   18.83    1.12
  -9  -9  -9   19.28    1.15
  -9   9  -9   19.28    1.30
   9   9   9   20.10    1.42
  -9   9  -9   20.09    2.47
  11  -9   9    2.71    0.78
 -11  -9  -9    1.10    0.58
 -11  -9  -9    0.77    0.42
 -11  -9  -9    0.88    0.85
 -11   9  -9    1.31    1.06
  11   9   9    0.01    0.63
 -11   9  -9    0.53    0.48
 -13  -9  -9    5.34    0.90
 -13  -9  -9    6.86    0.95
  13  -9   9    8.01    1.21
 -13   9  -9    5.78    1.39
  13   9   9    7.38    1.15
 -13   9  -9    5.90    0.85
 -15  -9  -9    8.20    1.00
 -15  -9  -9    9.06    1.16
 -15   9  -9    9.76    1.75
 -15   9  -9   12.25    1.49
 -17  -9  -9    7.14    0.98
 -17  -9  -9    5.02    1.14
 -17   9  -9    6.95    1.15
 -17   9  -9    6.56    1.85
 -16 -10   9    0.30    1.59
 -16  10   9    0.96    1.77
  16  10  -9    0.69    0.87
 -14 -10   9    2.61    1.44
 -14  10   9    3.30    1.46
 -14  10   9    3.60    1.15
  14  10  -9    4.09    0.86
 -12 -10   9    8.02    1.25
 -12 -10   9    3.49    1.31
  12  10  -9    6.00    0.92
 -12  10   9    8.45    1.51
 -12  10   9    8.44    1.46
 -10 -10   9    1.68    1.02
 -10 -10   9    3.51    0.94
  10  10  -9    3.15    1.38
 -10  10   9    1.32    0.93
 -10  10   9    1.99    0.76
  -8 -10   9    1.00    0.38
  -8 -10   9    0.63    0.66
  -8 -10   9    1.02    0.80
   8  10  -9    1.22    0.97
   8  10  -9    0.46    0.46
  -8  10   9    0.30    0.54
  -8  10   9    0.79    0.76
  -6 -10   9    5.41    0.83
   6 -10  -9    6.48    0.69
  -6 -10   9    5.76    0.63
  -6 -10   9    4.86    0.95
   6 -10  -9    5.21    0.68
   6  10  -9    6.21    0.80
  -6  10   9    6.26    0.85
  -6  10   9    5.48    0.77
   6  10  -9    7.77    1.23
  -4 -10   9    5.07    0.92
  -4 -10   9    6.63    1.00
   4 -10  -9    7.14    0.71
   4 -10  -9    6.02    0.64
  -4 -10   9    7.20    0.62
   4  10  -9    6.21    0.78
  -4  10   9    7.14    0.56
  -4  10   9    6.67    0.82
  -4  10   9    5.13    0.79
   4  10  -9    7.06    1.18
   2 -10  -9    1.65    0.37
   2 -10  -9    1.22    0.35
  -2 -10   9    1.55    0.59
  -2 -10   9    0.81    0.57
  -2 -10   9    1.51    0.33
   2  10  -9    1.49    0.46
   2  10  -9    1.05    0.66
  -2  10   9    2.60    0.52
  -2  10   9    1.67    0.48
   0 -10   9    9.90    0.67
   0 -10   9    8.66    1.14
   0 -10  -9    9.32    0.74
   0 -10  -9    9.70    0.70
   0 -10   9    8.96    0.97
   0  10  -9    9.44    0.85
   0  10   9   10.26    1.06
   0  10  -9    9.81    1.36
   0  10   9    8.67    0.84
   2 -10   9    0.62    0.51
   2 -10   9    0.86    0.59
  -2 -10  -9    0.60    0.29
   2 -10   9    0.47    0.27
  -2 -10  -9    0.36    0.30
   2  10   9   -0.04    0.41
  -2  10  -9    0.78    0.39
  -2  10  -9    0.66    0.64
   4 -10   9    0.78    0.30
  -4 -10  -9    0.62    0.33
  -4 -10  -9    0.56    0.34
   4 -10   9    1.16    0.55
  -4  10  -9   -0.02    0.69
   4  10   9    0.26    0.46
  -4  10  -9    1.18    0.42
  -6 -10  -9    1.54    0.41
   6 -10   9    2.20    0.38
   6 -10   9    2.63    0.65
  -6 -10  -9    1.77    0.38
   6  10   9    1.62    0.55
  -6  10  -9    1.47    0.81
  -6  10  -9    1.30    0.46
  -8 -10  -9   -0.35    0.41
  -8 -10  -9    0.18    0.40
   8 -10   9    0.73    0.65
   8 -10   9    0.26    0.34
   8  10   9    0.34    0.51
  -8  10  -9   -1.41    0.72
  -8  10  -9    0.08    0.42
 -10 -10  -9    3.01    0.54
  10 -10   9    1.54    0.78
 -10 -10  -9    2.45    0.54
 -10 -10  -9    2.76    0.62
  10  10   9    2.45    0.70
 -10  10  -9    2.35    0.62
 -12 -10  -9    7.05    0.82
 -12 -10  -9    7.04    0.90
  12 -10   9    7.30    1.22
  12  10   9    6.85    1.26
 -12  10  -9    5.97    0.90
 -12  10  -9    3.89    1.21
 -14 -10  -9    3.58    0.91
 -14 -10  -9    2.35    0.70
 -14  10  -9    0.00    1.33
 -14  10  -9    1.90    0.77
 -16 -10  -9    3.12    1.04
 -16 -10  -9    2.04    0.79
 -16  10  -9    5.19    1.75
 -16  10  -9    1.07    0.90
 -15 -11   9   -1.67    1.54
 -15  11   9    0.49    1.74
  15  11  -9   -0.23    0.83
 -13 -11   9    5.63    1.43
 -13 -11   9    4.34    1.44
 -13  11   9    7.22    1.15
 -13  11   9    5.84    1.67
  13  11  -9    3.68    0.85
 -11 -11   9   18.34    1.91
 -11 -11   9   14.98    2.17
 -11 -11   9   14.40    1.12
  11  11  -9   12.43    1.36
 -11  11   9   14.54    2.07
 -11  11   9   16.27    1.50
  -9 -11   9    1.80    1.40
  -9 -11   9   -0.20    0.39
  -9 -11   9   -0.14    0.78
   9  11  -9    0.65    1.19
  -9  11   9   -0.02    0.64
  -9  11   9    1.68    0.94
   9  11  -9    0.05    0.52
  -7 -11   9   33.48    1.52
   7 -11  -9   32.56    1.56
  -7 -11   9   32.52    1.93
  -7 -11   9   28.95    2.25
   7  11  -9   30.77    1.72
  -7  11   9   33.40    1.76
   7  11  -9   33.01    2.44
  -7  11   9   33.24    1.97
   5 -11  -9    1.19    0.40
  -5 -11   9    0.66    0.33
   5 -11  -9    0.08    0.35
  -5 -11   9    0.82    0.72
  -5 -11   9    0.33    0.62
   5  11  -9    1.19    0.95
   5  11  -9    0.61    0.44
  -5  11   9    0.04    0.52
  -3 -11   9   25.09    1.86
  -3 -11   9   23.36    1.48
   3 -11  -9   25.03    1.28
  -3 -11   9   25.72    1.18
   3 -11  -9   23.37    1.18
   3  11  -9   22.55    1.38
   3  11  -9   24.89    1.95
  -3  11   9   24.10    1.34
  -3  11   9   22.99    1.20
  -1 -11   9    2.64    0.63
  -1 -11   9    1.89    0.72
   1 -11  -9    2.23    0.42
   1 -11  -9    2.52    0.48
  -1 -11   9    2.43    0.40
  -1  11   9    1.85    0.60
  -1  11   9    2.56    0.57
   1  11  -9    1.51    0.78
   1  11  -9    2.40    0.50
   1 -11   9    1.09    0.56
   1 -11   9    1.28    0.66
  -1 -11  -9    0.49    0.32
  -1 -11  -9   -0.03    0.33
   1 -11   9    0.68    0.31
  -1  11  -9    0.70    0.41
  -1  11  -9    1.37    0.73
   1  11   9   -0.05    0.44
   3 -11   9   12.26    0.80
   3 -11   9   13.83    1.15
  -3 -11  -9   12.60    0.86
   3 -11   9   13.62    1.41
  -3 -11  -9   12.62    0.91
  -3  11  -9   12.97    1.06
   3  11   9   13.42    1.07
  -3  11  -9    9.93    1.27
  -5 -11  -9    1.04    0.39
   5 -11   9    0.22    0.31
   5 -11   9    0.01    0.57
  -5 -11  -9    0.79    0.37
  -5  11  -9    0.65    0.85
   5  11   9    1.46    0.55
  -5  11  -9    0.37    0.42
  -7 -11  -9    9.96    0.86
   7 -11   9    9.44    0.79
  -7 -11  -9    8.02    0.86
   7 -11   9    8.51    1.22
  -7  11  -9    9.28    1.15
   7  11   9    8.39    1.07
  -7  11  -9    8.38    1.25
   9 -11   9    7.42    0.80
  -9 -11  -9    6.26    0.70
   9 -11   9    5.74    0.99
  -9 -11  -9    6.70    0.81
  -9  11  -9    6.66    0.98
  -9  11  -9    5.86    1.25
   9  11   9    6.44    0.89
 -11 -11  -9   30.47    1.67
  11 -11   9   34.59    2.14
 -11  11  -9   30.86    2.56
 -11  11  -9   30.99    1.84
  11  11   9   35.43    2.03
 -13 -11  -9   13.14    1.34
 -13  11  -9   20.26    2.50
 -13  11  -9   17.20    1.59
 -15 -11  -9   13.24    1.48
 -15  11  -9   17.07    1.74
 -15  11  -9   14.16    2.10
 -14 -12   9   45.14    2.15
 -14 -12   9   40.81    3.49
  14  12  -9   41.04    2.46
 -14  12   9   36.97    3.56
 -12 -12   9   17.57    1.33
 -12 -12   9   16.61    2.50
  12  12  -9   14.17    1.57
 -10 -12   9    1.45    0.53
 -10 -12   9   -0.58    1.01
 -10 -12   9   -0.83    1.03
 -10  12   9   -1.23    1.02
  10  12  -9    0.79    0.63
  10  12  -9    0.08    1.58
  -8 -12   9    6.14    1.10
  -8 -12   9    7.73    1.40
  -8 -12   9    4.37    0.94
   8  12  -9    5.83    0.84
  -8  12   9    6.64    1.29
   8  12  -9    7.18    1.56
   6 -12  -9   46.76    2.06
   6 -12  -9   47.18    1.99
  -6 -12   9   47.71    1.98
  -6 -12   9   48.24    2.33
  -6 -12   9   45.50    2.76
  -6  12   9   47.50    2.08
   6  12  -9   54.10    3.05
   6  12  -9   45.08    2.21
  -4 -12   9   15.57    1.01
  -4 -12   9   17.30    1.45
  -4 -12   9   18.33    1.83
   4 -12  -9   16.18    1.06
   4 -12  -9   17.76    1.16
   4  12  -9   15.69    1.94
  -4  12   9   17.39    1.20
   4  12  -9   17.79    1.38
   2 -12  -9    0.60    0.41
   2 -12  -9    0.17    0.37
  -2 -12   9    0.94    0.64
  -2 -12   9    1.18    0.73
  -2 -12   9   -0.41    0.31
   2  12  -9   -0.27    0.79
  -2  12   9   -0.31    0.49
   2  12  -9   -0.45    0.41
   0 -12  -9    1.38    0.43
   0 -12   9    1.52    0.37
   0 -12   9    2.34    0.88
   0 -12   9    1.03    0.60
   0 -12  -9    1.17    0.43
   0  12  -9    1.13    0.82
   0  12   9    1.24    0.53
   0  12  -9    0.14    0.41
   2 -12   9   67.94    2.67
  -2 -12  -9   64.37    2.40
   2 -12   9   64.70    2.68
   2 -12   9   59.70    3.03
  -2 -12  -9   64.64    2.53
   2  12   9   65.12    2.51
  -2  12  -9   64.03    2.69
  -2  12  -9   65.73    3.24
   4 -12   9   44.78    1.76
  -4 -12  -9   40.28    2.50
   4 -12   9   44.45    2.01
  -4 -12  -9   41.21    1.74
  -4  12  -9   42.25    2.58
  -4  12  -9   39.47    2.03
   4  12   9   42.97    1.90
  -6 -12  -9    4.96    0.67
  -6 -12  -9    4.82    0.63
   6 -12   9    4.89    0.60
   6  12   9    6.81    1.00
  -6  12  -9    4.99    1.24
  -6  12  -9    3.47    0.67
  -8 -12  -9    2.08    0.57
  -8 -12  -9    2.72    0.61
   8 -12   9    1.46    0.48
  -8  12  -9    2.58    0.66
  -8  12  -9    0.75    1.01
   8  12   9    2.44    0.70
 -10 -12  -9    7.19    0.85
 -10  12  -9    5.75    1.33
 -10  12  -9    6.86    0.92
  10  12   9    9.25    1.36
 -12 -12  -9   29.00    1.74
 -12  12  -9   26.04    2.72
 -12  12  -9   31.47    1.98
 -14 -12  -9    1.75    0.78
 -14  12  -9    0.69    1.51
 -14  12  -9    2.28    0.87
 -13 -13   9    8.31    1.92
 -13 -13   9    9.78    1.09
  13  13  -9    8.07    1.20
 -11 -13   9   43.69    3.20
 -11 -13   9   39.40    2.00
  11  13  -9   38.81    2.30
  -9 -13   9   34.25    1.71
  -9 -13   9   32.08    2.69
   9  13  -9   38.80    3.35
   9  13  -9   31.53    1.96
   7 -13  -9   25.60    1.58
  -7 -13   9   26.54    1.48
  -7 -13   9   28.86    2.40
   7 -13  -9   26.44    1.62
   7  13  -9   32.25    2.85
   7  13  -9   27.50    1.73
  -5 -13   9   16.15    1.06
   5 -13  -9   14.41    1.13
  -5 -13   9   14.43    1.91
   5 -13  -9   14.49    1.15
   5  13  -9   17.78    2.20
   5  13  -9   11.43    1.23
  -3 -13   9   34.45    1.61
   3 -13  -9   35.04    1.76
   3 -13  -9   36.95    1.67
   3  13  -9   38.77    2.64
  -3  13   9   34.93    1.42
   3  13  -9   36.07    1.90
   1 -13  -9   82.86    3.19
   1 -13  -9   86.29    3.06
  -1 -13   9   87.89    3.08
   1  13  -9   84.26    3.36
   1  13  -9   89.90    3.99
  -1  13   9   80.30    3.01
  -1 -13  -9   10.13    0.96
  -1 -13  -9    9.51    0.95
   1 -13   9    9.78    0.84
   1 -13   9    8.09    1.26
  -1  13  -9    8.51    1.01
  -1  13  -9    8.84    1.38
  -3 -13  -9    1.87    0.52
  -3 -13  -9    3.10    0.60
   3 -13   9    4.27    0.57
  -3  13  -9    0.94    1.02
  -3  13  -9    3.54    0.69
  -5 -13  -9   38.53    1.73
  -5 -13  -9   34.83    1.76
   5 -13   9   38.55    1.68
  -5  13  -9   38.67    2.60
  -5  13  -9   35.98    1.91
   7 -13   9   55.56    2.22
  -7 -13  -9   54.31    2.34
  -7 -13  -9   55.20    2.26
  -7  13  -9   57.63    3.22
  -7  13  -9   52.92    2.50
   9 -13   9   27.48    1.51
  -9 -13  -9   26.67    1.61
  -9 -13  -9   34.02    2.40
  -9  13  -9   29.05    2.55
  -9  13  -9   27.80    1.78
 -11 -13  -9    1.01    0.63
 -11  13  -9   -1.08    1.19
 -11  13  -9    2.08    0.82
 -13 -13  -9   57.87    2.65
 -13  13  -9   55.93    3.73
 -13  13  -9   64.21    2.99
 -12 -14   9   95.13    4.86
 -12 -14   9   92.12    3.60
  12  14  -9   88.71    3.91
 -10 -14   9    1.25    1.43
 -10 -14   9    0.24    0.61
  10  14  -9   -0.34    0.72
  -8 -14   9   70.58    3.90
  -8 -14   9   79.59    3.02
   8  14  -9   73.67    3.29
   8  14  -9   76.09    4.43
   6 -14  -9   31.82    1.68
   6 -14  -9   30.02    1.72
  -6 -14   9   30.44    1.61
  -6 -14   9   29.27    2.54
   6  14  -9   29.57    1.88
  -4 -14   9   38.25    2.53
   4 -14  -9   37.92    1.87
   4 -14  -9   31.21    2.21
  -4 -14   9   36.89    1.74
   4  14  -9   36.26    2.02
  -2 -14   9    6.66    1.21
   2 -14  -9    8.62    1.02
   2 -14  -9    9.09    1.03
   2  14  -9    9.50    1.16
  -2  14   9    7.53    0.77
   0 -14   9   15.28    1.80
   0 -14   9   14.09    1.12
   0 -14  -9   13.32    1.15
   0 -14  -9   14.43    1.15
   0  14   9   12.03    1.02
   0  14  -9   12.61    1.24
   0  14  -9   11.47    1.65
  -2 -14  -9   70.24    2.80
  -2 -14  -9   70.59    2.70
   2 -14   9   69.73    2.85
  -2  14  -9   70.48    3.68
  -2  14  -9   69.20    2.98
  -4 -14  -9  105.55    3.66
   4 -14   9   99.42    4.09
  -4 -14  -9  101.65    3.76
  -4  14  -9  102.95    3.96
  -4  14  -9  103.64    4.59
  -6 -14  -9    7.00    0.84
   6 -14   9    8.21    1.02
  -6  14  -9    7.88    1.16
  -6  14  -9   10.29    1.66
   8 -14   9   81.15    3.05
  -8 -14  -9   77.89    3.16
  -8  14  -9   79.69    3.36
  -8  14  -9   79.84    4.09
 -10 -14  -9   66.84    2.85
 -10  14  -9   70.51    3.89
 -10  14  -9   68.57    3.08
 -11 -15   9   21.20    3.13
 -11 -15   9   19.93    1.61
  11  15  -9   20.34    1.96
  -9 -15   9   88.79    3.38
  -9 -15   9   82.16    4.56
   9  15  -9   82.88    3.66
  -7 -15   9   22.41    2.69
   7 -15  -9   23.48    1.62
  -7 -15   9   21.83    1.50
   7  15  -9   20.99    1.77
   7  15  -9   27.49    3.26
  -5 -15   9   -0.06    0.56
   5 -15  -9    0.98    0.66
   5 -15  -9    0.70    0.68
  -5 -15   9    0.44    1.13
   5  15  -9    0.04    0.69
   5  15  -9   -0.29    1.49
  -3 -15   9  109.84    4.69
  -3 -15   9  107.70    3.85
   3 -15  -9  107.40    3.84
   3 -15  -9  101.20    3.92
   3  15  -9  109.55    5.01
   3  15  -9  103.63    4.14
  -3  15   9  105.80    3.53
  -1 -15   9  146.19    5.70
  -1 -15   9  144.28    4.86
   1 -15  -9  144.38    4.98
   1 -15  -9  142.11    4.84
   1  15  -9  142.84    5.93
   1  15  -9  138.93    5.16
  -1  15   9  133.31    4.72
   1 -15   9    3.74    0.66
  -1 -15  -9    3.35    0.70
  -1 -15  -9    4.21    0.78
   1  15   9    2.57    0.66
  -1  15  -9    4.87    1.41
  -1  15  -9    4.03    0.83
   3 -15   9   13.88    1.14
  -3 -15  -9   10.99    1.20
  -3 -15  -9   11.90    1.32
   3  15   9   11.43    1.25
  -3  15  -9   14.52    1.43
  -3  15  -9   11.76    1.75
  -5 -15  -9   28.63    1.70
   5 -15   9   28.22    1.58
  -5 -15  -9   26.12    1.64
  -5  15  -9   27.25    1.81
   5  15   9   24.53    1.80
  -5  15  -9   29.92    2.68
  -7 -15  -9   65.26    2.88
   7 -15   9   72.22    2.80
  -7  15  -9   68.53    3.08
  -7  15  -9   69.97    3.91
   9 -15   9   47.99    2.12
  -9 -15  -9   41.86    2.21
  -9  15  -9   38.73    3.21
  -9  15  -9   43.30    2.45
   9  15   9   43.75    2.28
  -8 -16   9   31.63    1.85
  -8 -16   9   33.33    3.16
   8  16  -9   31.14    3.91
   8  16  -9   27.72    2.12
   6 -16  -9   86.94    3.39
  -6 -16   9   87.33    3.33
  -6 -16   9   81.88    4.39
   6  16  -9   83.64    4.97
   6  16  -9   80.45    3.63
   4 -16  -9   46.43    2.33
  -4 -16   9   51.71    2.34
  -4 -16   9   52.18    3.37
   4 -16  -9   48.98    2.39
   4  16  -9   52.41    3.82
   4  16  -9   50.98    2.62
   2 -16  -9   11.30    1.34
  -2 -16   9   11.51    1.19
   2 -16  -9    9.75    1.10
  -2  16   9    8.54    0.99
   2  16  -9    7.44    1.82
   2  16  -9    8.29    1.13
   0 -16  -9   47.79    2.40
   0 -16  -9   53.29    2.41
   0 -16   9   53.00    2.32
   0  16  -9   52.65    2.66
   0  16  -9   52.29    3.55
   0  16   9   54.76    2.31
   2 -16   9   81.16    3.10
  -2 -16  -9   79.10    3.13
  -2 -16  -9   80.02    3.22
  -2  16  -9   75.11    4.21
  -2  16  -9   79.98    3.41
   2  16   9   76.48    3.16
   4 -16   9   51.06    2.28
  -4 -16  -9   51.20    2.38
  -4 -16  -9   50.17    2.37
   4  16   9   47.76    2.45
  -4  16  -9   49.55    2.57
  -4  16  -9   46.51    3.34
   6 -16   9    2.05    0.76
  -6 -16  -9    1.68    0.75
  -6  16  -9    1.91    0.86
  -6  16  -9    2.52    1.54
   6  16   9    2.89    0.90
  -5 -17   9    0.28    0.75
  -5 -17   9   -1.40    1.51
   5 -17  -9   -1.61    0.77
   5  17  -9    3.38    1.97
   5  17  -9    1.19    0.96
   3 -17  -9   86.67    3.43
  -3 -17   9   89.49    3.40
   3 -17  -9   80.04    3.48
   3  17  -9   92.81    4.90
   3  17  -9   83.60    3.69
   1 -17  -9   39.11    2.24
  -1 -17   9   46.02    2.17
   1 -17  -9   46.56    2.28
   1  17  -9   42.92    2.46
  -1  17   9   41.01    1.98
   1  17  -9   43.77    3.64
  -1 -17  -9    2.44    0.79
   1 -17   9    2.75    0.78
  -1 -17  -9    3.93    0.95
  -1  17  -9    3.94    0.97
  -1  17  -9    1.13    1.63
   1  17   9    2.44    0.80
  -3 -17  -9    2.54    1.03
   3 -17   9    2.79    0.78
  -3 -17  -9    4.87    0.93
   3  17   9    2.30    0.89
  -3  17  -9    5.34    1.71
  -3  17  -9    1.95    0.92
 -20   0  10   20.15    2.53
 -20   0  10   26.66    3.39
 -18   0  10    6.81    1.49
 -18   0  10    6.07    1.35
 -18   0  10    5.10    1.57
 -16   0  10   64.84    3.74
 -16   0  10   74.05    2.94
 -16   0  10   64.27    3.22
 -14   0  10  148.27    4.88
 -14   0  10  133.82    5.72
 -14   0  10  133.51    5.15
 -12   0  10   20.72    1.46
 -12   0  10   20.79    1.88
 -12   0  10   25.26    1.30
 -10   0  10   77.28    3.51
 -10   0  10   78.41    2.82
  -8   0  10   56.14    2.20
   8   0 -10   54.82    2.66
  -8   0  10   53.51    2.62
   6   0 -10   95.55    3.05
  -6   0  10   94.41    3.67
   6   0 -10  103.24    3.36
   6   0 -10  102.59    3.08
  -6   0  10   94.49    3.79
  -4   0  10  139.02    4.97
  -4   0  10  141.17    4.72
   4   0 -10  146.35    4.63
  -4   0  10  136.81    4.88
   4   0 -10  136.78    4.36
   4   0 -10  139.67    4.27
   4   0 -10  147.60    4.39
  -4   0  10  140.17    4.31
   2   0 -10    8.48    0.83
  -2   0  10    8.76    0.82
   2   0 -10    7.26    0.40
   2   0 -10    6.67    0.57
  -2   0  10    8.46    0.81
   2   0 -10    7.97    0.51
  -2   0  10    7.58    0.78
   0   0 -10  213.04    6.77
   0   0 -10  227.63    7.12
   0   0 -10  214.87    6.84
   0   0  10  220.99    7.28
   0   0  10  231.10    7.20
   0   0 -10  222.93    6.86
   0   0  10  224.42    7.25
   2   0  10  367.33   11.55
  -2   0 -10  361.58   11.42
  -2   0 -10  353.49   11.13
   2   0  10  380.38   11.52
   2   0  10  366.36   11.44
   4   0  10   31.95    1.90
  -4   0 -10   33.85    1.73
   4   0  10   35.42    1.59
  -4   0 -10   34.72    1.42
   4   0  10   34.70    1.72
   6   0  10   90.66    3.48
  -6   0 -10   91.78    3.54
  -6   0 -10   90.64    3.16
  -8   0 -10  173.85    6.01
  -8   0 -10  164.89    5.53
   8   0  10  168.20    5.88
 -10   0 -10   45.46    2.47
  10   0  10   44.91    2.21
 -10   0 -10   42.86    1.91
 -12   0 -10   19.30    1.99
 -12   0 -10   16.72    1.16
  12   0  10   14.76    1.39
 -14   0 -10    9.33    1.63
 -14   0 -10    9.77    1.10
  14   0  10    8.69    1.29
  16   0  10  110.46    4.57
 -16   0 -10  114.96    5.55
 -16   0 -10  112.83    4.30
  18   0  10  116.37    4.89
 -18   0 -10  126.69    4.75
 -19  -1  10   98.38    3.87
 -19  -1  10   85.67    4.92
 -19  -1  10   80.27    4.26
 -19   1  10   86.64    4.92
 -19   1  10   82.51    4.10
 -17  -1  10   13.87    1.82
 -17  -1  10   12.86    1.88
 -17  -1  10   14.95    1.51
 -17   1  10   16.80    1.51
 -17   1  10   15.76    2.45
 -17   1  10   10.60    1.67
 -15  -1  10    0.66    0.75
 -15  -1  10   -0.16    0.98
 -15  -1  10    1.00    0.58
 -15   1  10    2.63    1.10
 -15   1  10    1.15    0.68
 -15   1  10    0.25    0.56
 -13  -1  10   99.27    4.12
 -13  -1  10  105.51    4.62
 -13  -1  10  109.35    3.82
 -13   1  10  104.69    4.03
 -13   1  10  101.04    4.61
 -13   1  10  107.93    3.75
 -11  -1  10  102.60    3.58
 -11  -1  10  100.61    3.86
 -11  -1  10   97.25    4.28
 -11   1  10  100.59    3.50
 -11   1  10  102.20    4.31
 -11   1  10   99.40    3.74
  11   1 -10  101.44    3.14
  -9  -1  10   83.89    3.66
  -9  -1  10   85.44    3.04
  -9   1  10   89.41    3.10
  -9   1  10   83.92    3.65
  -9   1  10   84.61    2.96
  -7  -1  10    4.49    0.62
  -7  -1  10    2.61    0.65
  -7  -1  10    3.02    0.60
   7   1 -10    3.10    0.42
  -7   1  10    3.28    0.50
  -7   1  10    2.50    0.62
   7   1 -10    3.84    0.52
   7   1 -10    2.82    0.61
  -7   1  10    3.79    0.69
  -5  -1  10  152.15    4.79
  -5  -1  10  150.36    5.36
   5  -1 -10  159.30    4.92
   5  -1 -10  156.88    4.73
  -5  -1  10  160.51    5.20
  -5  -1  10  149.92    5.48
  -5   1  10  158.45    5.11
  -5   1  10  151.06    5.36
   5   1 -10  152.67    4.85
   5   1 -10  159.54    4.88
   5   1 -10  160.17    5.13
  -5   1  10  157.21    4.79
  -5   1  10  156.23    5.45
  -3  -1  10  435.90   13.13
  -3  -1  10  407.86   13.25
   3  -1 -10  450.97   12.91
  -3  -1  10  435.97   12.63
  -3  -1  10  414.23   13.35
   3  -1 -10  401.35   12.66
   3  -1 -10  408.81   12.68
   3  -1 -10  436.76   12.68
   3   1 -10  443.65   12.83
  -3   1  10  428.94   12.62
   3   1 -10  419.90   12.63
   3   1 -10  406.02   12.79
  -3   1  10  419.87   13.26
  -3   1  10  434.65   13.06
  -3   1  10  421.51   13.27
   1  -1 -10   45.12    2.09
   1  -1 -10   44.92    1.54
  -1  -1  10   45.87    1.96
   1  -1 -10   42.78    1.54
  -1  -1  10   45.55    2.03
  -1  -1  10   43.45    1.98
   1   1 -10   44.43    1.63
   1   1 -10   43.48    1.50
  -1   1  10   45.29    1.89
   1   1 -10   46.31    1.92
  -1   1  10   44.17    1.97
  -1   1  10   44.07    1.93
   1  -1  10   28.81    1.47
   1  -1  10   29.09    1.55
   1  -1  10   28.41    1.50
  -1  -1 -10   26.46    1.10
  -1  -1 -10   29.10    1.18
  -1  -1 -10   27.65    1.13
   1   1  10   29.38    1.50
   1   1  10   29.84    1.52
   1   1  10   28.45    1.40
  -1   1 -10   29.98    1.50
  -1   1 -10   28.46    1.19
   3  -1  10   52.72    2.25
  -3  -1 -10   53.07    2.20
   3  -1  10   52.93    2.18
   3  -1  10   51.71    2.36
  -3  -1 -10   52.33    1.87
  -3  -1 -10   50.45    1.89
  -3   1 -10   53.78    2.27
  -3   1 -10   52.25    1.95
   3   1  10   53.17    2.08
   3   1  10   54.47    2.33
   3   1  10   49.94    2.23
  -5  -1 -10  208.73    6.60
  -5  -1 -10  203.73    6.92
   5  -1  10  214.18    7.00
   5  -1  10  211.86    6.87
   5   1  10  212.94    7.00
  -5   1 -10  206.59    6.65
   5   1  10  207.92    7.07
  -5   1 -10  209.47    7.01
  -7  -1 -10   75.66    3.16
   7  -1  10   77.24    3.09
  -7  -1 -10   78.18    2.77
  -7   1 -10   76.05    2.78
   7   1  10   76.37    3.08
  -7   1 -10   77.21    3.25
   9  -1  10   -0.14    0.45
  -9  -1 -10    0.48    0.33
  -9  -1 -10    0.23    0.79
  -9   1 -10    0.36    0.30
   9   1  10    0.50    0.45
  -9   1 -10    0.99    0.73
  11  -1  10   49.29    2.35
 -11  -1 -10   47.83    2.04
 -11  -1 -10   43.50    2.60
 -11   1 -10   45.19    2.66
  11   1  10   47.29    2.32
 -11   1 -10   46.46    2.05
 -13  -1 -10  174.27    6.43
 -13  -1 -10  179.16    6.73
 -13   1 -10  176.84    6.73
 -15  -1 -10   55.12    4.19
 -15  -1 -10   58.11    2.64
  15  -1  10   62.19    2.91
 -15   1 -10   58.86    2.64
  15   1  10   57.23    2.86
 -15   1 -10   64.67    3.82
 -17  -1 -10    4.93    0.95
  17  -1  10    7.12    1.18
 -17   1 -10    7.09    2.25
 -17   1 -10    7.26    0.99
  17   1  10    5.56    1.15
 -19  -1 -10   24.88    2.09
 -19   1 -10   23.00    2.08
 -20  -2  10    9.17    2.05
 -20  -2  10    3.98    1.44
 -20  -2  10    2.54    1.19
 -20   2  10    7.14    1.39
 -20   2  10    4.33    2.03
 -18  -2  10    0.95    0.89
 -18  -2  10    2.29    1.14
 -18  -2  10   -1.66    1.37
 -18   2  10    0.81    0.93
 -18   2  10    0.96    1.45
 -16  -2  10   42.33    3.16
 -16  -2  10   48.47    2.77
 -16  -2  10   45.50    2.31
 -16   2  10   50.97    2.30
 -16   2  10   45.30    3.25
 -16   2  10   45.32    2.48
 -14  -2  10  139.53    4.83
 -14  -2  10  133.85    5.24
 -14  -2  10  135.03    5.67
 -14   2  10  143.42    4.71
 -14   2  10  129.38    4.92
 -14   2  10  131.54    5.70
 -12  -2  10   24.81    2.06
 -12  -2  10   28.09    1.43
 -12  -2  10   26.57    1.71
 -12   2  10   25.52    1.31
 -12   2  10   24.62    2.07
 -12   2  10   24.29    1.45
  12   2 -10   25.87    1.08
 -10  -2  10   33.70    1.51
 -10  -2  10   29.89    2.00
 -10   2  10   31.48    1.39
 -10   2  10   32.14    2.04
  10   2 -10   30.63    1.24
  -8  -2  10  182.11    5.97
  -8  -2  10  175.61    6.28
  -8   2  10  164.53    6.17
   8   2 -10  171.46    5.42
  -8   2  10  175.70    5.62
  -8   2  10  171.09    6.01
   8   2 -10  176.05    5.74
  -6  -2  10   90.95    3.63
   6  -2 -10   92.42    2.82
  -6  -2  10   91.33    3.31
  -6  -2  10   89.91    3.45
  -6   2  10   88.33    3.43
  -6   2  10   89.58    3.11
  -6   2  10   87.99    3.50
   6   2 -10   87.89    2.96
   6   2 -10   88.78    3.00
   4  -2 -10   15.17    0.65
   4  -2 -10   15.05    0.78
  -4  -2  10   15.51    1.08
  -4  -2  10   16.49    1.21
  -4  -2  10   15.49    1.09
   4   2 -10   14.94    1.08
  -4   2  10   15.49    0.63
  -4   2  10   16.12    0.94
   4   2 -10   15.38    0.77
  -4   2  10   14.87    1.09
  -4   2  10   16.11    1.07
  -2  -2  10    7.79    0.80
  -2  -2  10    7.72    0.94
   2  -2 -10    8.35    0.73
  -2  -2  10    6.76    0.84
  -2  -2  10    8.01    0.36
   2  -2 -10    8.01    0.47
   2  -2 -10    8.14    0.37
   2   2 -10    8.73    0.89
  -2   2  10    8.15    0.74
   2   2 -10    8.46    0.40
  -2   2  10    9.04    0.34
  -2   2  10    8.08    0.80
   2   2 -10    8.32    0.57
  -2   2  10    8.61    0.83
   0  -2  10   75.20    2.91
   0  -2 -10   77.72    2.70
   0  -2 -10   72.03    2.42
   0  -2  10   71.44    2.88
   0  -2 -10   75.10    2.48
   0  -2  10   74.50    2.95
   0  -2 -10   76.22    2.44
   0   2  10   74.65    2.90
   0   2 -10   75.48    2.89
   0   2 -10   73.33    2.58
   0   2  10   78.69    2.83
   0   2  10   75.37    2.79
   2  -2  10  200.69    6.81
  -2  -2 -10  204.47    6.39
  -2  -2 -10  198.34    6.37
   2  -2  10  205.47    6.84
   2   2  10  214.10    6.81
   2   2  10  204.40    6.83
  -2   2 -10  208.15    6.51
  -2   2 -10  216.15    6.86
  -4  -2 -10   74.30    2.90
  -4  -2 -10   76.16    2.59
   4  -2  10   76.06    2.93
  -4  -2 -10   73.39    2.58
   4  -2  10   77.58    2.99
   4   2  10   72.61    2.88
   4   2  10   78.17    3.05
   4   2  10   76.19    2.98
  -4   2 -10   75.56    2.68
  -4   2 -10   73.29    3.00
  -6  -2 -10   24.25    1.16
   6  -2  10   25.35    1.47
  -6  -2 -10   23.24    1.56
  -6   2 -10   26.17    1.24
   6   2  10   25.37    1.44
  -6   2 -10   24.47    1.68
  -8  -2 -10  111.98    3.82
  -8  -2 -10  111.16    4.26
   8  -2  10  113.58    4.18
   8   2  10  110.55    4.17
  -8   2 -10  112.14    4.34
  -8   2 -10  110.55    3.88
 -10  -2 -10  122.76    4.21
  10  -2  10  122.01    4.52
 -10   2 -10  114.21    4.71
 -10   2 -10  122.04    4.25
  10   2  10  124.25    4.55
 -12  -2 -10   10.96    1.01
 -12  -2 -10    9.26    1.52
  12  -2  10   10.34    1.25
 -12   2 -10   11.97    1.61
 -12   2 -10   10.09    1.01
  12   2  10   11.80    1.24
 -14  -2 -10    5.58    0.84
  14  -2  10    5.47    0.94
  14   2  10    4.17    0.83
 -14   2 -10    8.05    1.43
 -14   2 -10    4.68    0.79
  16  -2  10   43.28    2.46
 -16  -2 -10   40.05    2.17
 -16   2 -10   38.65    2.15
  16   2  10   39.91    2.40
  18  -2  10   61.06    3.17
 -18  -2 -10   61.09    2.96
 -18   2 -10   57.30    2.93
  18   2  10   63.15    3.15
 -18   2 -10   74.40    6.24
 -19  -3  10   42.23    3.14
 -19  -3  10   37.70    3.49
 -19  -3  10   44.95    2.58
 -19   3  10   35.09    2.56
 -19   3  10   41.54    3.86
 -17  -3  10    9.99    1.45
 -17  -3  10    7.91    1.43
 -17  -3  10    9.00    1.78
 -17   3  10    6.77    1.09
 -17   3  10   10.08    1.74
 -15  -3  10   26.76    2.43
 -15  -3  10   25.13    2.17
 -15  -3  10   30.46    1.76
 -15   3  10   25.04    2.55
 -15   3  10   29.67    1.64
 -15   3  10   29.18    1.79
  15   3 -10   30.62    1.56
 -13  -3  10    7.23    1.34
 -13  -3  10    5.34    0.74
 -13  -3  10    5.88    0.98
 -13   3  10    6.25    0.83
 -13   3  10    5.51    0.80
  13   3 -10    6.48    0.81
 -13   3  10    5.34    1.20
 -11  -3  10   31.30    2.18
 -11  -3  10   36.45    1.65
 -11   3  10   33.57    1.47
  11   3 -10   32.28    1.36
 -11   3  10   31.09    2.17
  -9  -3  10   87.04    3.86
  -9   3  10   93.89    3.09
  -9   3  10   95.71    3.18
  -9   3  10   90.47    3.82
   9   3 -10   90.45    3.07
  -7  -3  10   16.48    1.39
  -7  -3  10   14.28    1.35
  -7  -3  10   16.31    1.23
   7  -3 -10   18.15    0.75
  -7   3  10   17.18    1.33
  -7   3  10   17.89    0.96
   7   3 -10   16.27    1.25
  -7   3  10   16.82    1.22
   7   3 -10   18.51    0.89
  -5  -3  10  166.67    5.76
   5  -3 -10  168.43    5.18
  -5  -3  10  171.96    5.68
  -5  -3  10  169.43    5.98
   5   3 -10  168.62    5.64
   5   3 -10  168.80    5.35
  -5   3  10  168.46    5.40
  -5   3  10  166.98    5.74
  -5   3  10  165.70    5.76
  -5   3  10  168.99    5.20
  -3  -3  10   31.19    1.60
  -3  -3  10   29.55    1.60
  -3  -3  10   31.99    1.72
  -3   3  10   31.99    1.38
   3   3 -10   29.92    1.58
   3   3 -10   33.22    1.01
   3   3 -10   29.44    1.28
  -3   3  10   32.50    1.07
  -3   3  10   29.70    1.57
  -3   3  10   28.95    1.51
  -1  -3  10   12.54    0.46
   1  -3 -10   11.75    0.62
  -1  -3  10   11.90    0.96
  -1  -3  10   10.10    1.13
  -1  -3  10   11.89    1.02
   1  -3 -10   12.29    0.82
  -1   3  10    9.79    0.97
  -1   3  10   13.86    0.90
  -1   3  10   12.57    0.96
   1   3 -10   12.00    1.04
   1   3 -10   11.93    0.72
   1  -3  10   28.96    1.58
  -1  -3 -10   29.31    1.20
  -1  -3 -10   31.60    1.14
  -1  -3 -10   30.76    1.11
  -1  -3 -10   30.85    1.42
   1  -3  10   30.75    1.57
   1   3  10   28.73    1.53
   1   3  10   28.70    1.37
  -1   3 -10   31.50    1.62
  -1   3 -10   31.61    1.41
   1   3  10   33.47    1.57
  -3  -3 -10   40.48    1.83
   3  -3  10   41.17    1.92
   3  -3  10   38.51    1.88
  -3  -3 -10   40.41    1.54
  -3  -3 -10   41.16    1.88
  -3  -3 -10   40.70    1.51
  -3   3 -10   42.66    2.01
   3   3  10   40.62    1.90
   3   3  10   42.86    1.99
  -3   3 -10   41.80    1.68
   3   3  10   41.32    1.65
  -5  -3 -10    2.91    0.70
  -5  -3 -10    3.58    0.43
   5  -3  10    2.87    0.56
  -5  -3 -10    3.13    0.47
   5  -3  10    3.11    0.55
   5   3  10    4.13    0.80
   5   3  10    3.52    0.63
  -5   3 -10    3.55    0.49
  -7  -3 -10   70.70    2.57
  -7  -3 -10   70.72    3.01
  -7  -3 -10   72.78    2.59
   7  -3  10   73.02    2.95
   7   3  10   69.66    2.93
  -7   3 -10   70.65    2.67
  -7   3 -10   75.02    3.14
   9  -3  10   11.59    1.11
  -9  -3 -10    9.29    0.82
  -9  -3 -10   10.67    0.77
  -9  -3 -10    9.65    1.49
  -9   3 -10    9.65    1.38
   9   3  10    9.89    1.06
  -9   3 -10    9.88    0.85
 -11  -3 -10  127.55    5.43
 -11  -3 -10  128.96    4.45
 -11  -3 -10  131.00    4.52
  11  -3  10  137.80    4.90
 -11   3 -10  122.38    4.55
  11   3  10  133.72    4.89
 -11   3 -10  134.97    5.22
  13  -3  10   65.80    3.74
 -13  -3 -10   71.19    2.74
 -13   3 -10   75.72    3.73
  13   3  10   66.47    3.30
 -13   3 -10   70.29    2.89
 -15  -3 -10    1.67    0.53
  15  -3  10    2.11    0.90
 -15  -3 -10    0.29    0.61
 -15   3 -10    1.59    0.63
  15   3  10    0.58    0.79
 -15   3 -10    2.11    1.57
  17  -3  10    2.28    1.02
 -17  -3 -10    2.73    0.71
 -17  -3 -10    2.28    0.84
  17   3  10    1.96    1.01
 -17   3 -10    1.54    1.82
 -17   3 -10    0.64    0.80
 -20  -4  10    4.87    1.25
 -20  -4  10    5.23    1.87
 -20  -4  10   10.16    2.23
 -20   4  10    3.10    1.20
 -20   4  10    6.64    2.17
 -18  -4  10   -0.13    0.86
 -18  -4  10    1.66    1.30
 -18  -4  10    0.59    1.33
 -18   4  10    0.27    1.56
 -18   4  10    1.48    0.91
 -16  -4  10   38.64    2.15
 -16  -4  10   39.06    2.66
 -16  -4  10   38.79    2.89
  16   4 -10   41.65    2.20
 -16   4  10   30.31    3.04
 -16   4  10   33.11    2.02
 -14  -4  10    3.92    0.74
 -14  -4  10    6.45    1.43
 -14   4  10    3.92    1.27
  14   4 -10    4.58    0.59
 -14   4  10    3.59    0.75
 -12  -4  10    0.92    0.47
 -12  -4  10   -0.03    0.71
  12   4 -10    0.43    0.36
 -12   4  10    0.40    0.80
 -12   4  10    0.74    0.44
 -10  -4  10    7.04    0.78
 -10  -4  10    8.08    1.28
 -10   4  10    5.83    0.96
 -10   4  10    5.93    0.62
  10   4 -10    6.88    0.65
  -8  -4  10    9.19    1.03
  -8  -4  10    7.84    1.16
  -8   4  10    8.67    0.99
   8   4 -10    9.27    0.70
   8   4 -10    9.33    1.17
  -8   4  10    9.06    0.68
  -8   4  10   10.17    1.14
  -6  -4  10    5.91    0.92
  -6  -4  10    5.34    0.84
  -6  -4  10    7.46    0.88
   6  -4 -10    5.22    0.48
   6   4 -10    4.80    0.54
   6   4 -10    4.72    0.76
  -6   4  10    4.16    0.65
  -6   4  10    6.04    0.58
  -6   4  10    4.39    0.74
  -4  -4  10    1.08    0.96
  -4  -4  10    0.07    0.45
   4  -4 -10    0.50    0.21
  -4  -4  10    0.50    0.36
  -4   4  10    0.03    0.34
   4   4 -10   -0.08    0.21
  -4   4  10    0.16    0.30
  -4   4  10    0.33    0.31
  -4   4  10    0.08    0.22
   4   4 -10    0.37    0.47
  -2  -4  10   25.00    1.54
  -2  -4  10   22.62    1.36
   2  -4 -10   24.31    1.00
  -2  -4  10   25.23    0.89
  -2   4  10   21.18    1.53
   2   4 -10   23.66    1.12
  -2   4  10   23.37    1.36
  -2   4  10   25.87    1.21
   2   4 -10   23.44    1.43
   2   4 -10   24.91    0.90
  -2   4  10   25.88    0.88
   0  -4  10   20.46    1.36
   0  -4  10   21.78    0.78
   0  -4 -10   21.73    0.95
   0  -4 -10   22.10    1.03
   0  -4  10   22.03    1.32
   0   4  10   21.36    1.11
   0   4  10   21.06    1.27
   0   4 -10   22.35    1.07
   0   4  10   23.14    1.22
   0   4 -10   20.66    1.39
  -2  -4 -10  111.55    3.67
  -2  -4 -10  110.98    3.52
   2  -4  10  110.74    3.40
  -2  -4 -10  119.17    3.53
   2  -4  10  112.00    4.15
  -2  -4 -10  119.24    3.82
  -2  -4 -10  116.01    3.84
   2  -4  10  106.44    4.02
   2   4  10  112.67    4.03
  -2   4 -10  110.03    3.80
  -2   4 -10  113.98    4.16
   2   4  10  110.33    4.04
   2   4  10  110.46    3.69
   4  -4  10    0.50    0.41
   4  -4  10    0.79    0.40
  -4  -4 -10    0.92    0.56
  -4  -4 -10    0.60    0.24
  -4  -4 -10    1.26    0.54
  -4  -4 -10    0.71    0.26
   4   4  10    0.38    0.61
   4   4  10    0.55    0.38
  -4   4 -10    0.74    0.58
  -4   4 -10    0.42    0.27
  -6  -4 -10    7.12    0.62
   6  -4  10    7.75    0.92
  -6  -4 -10    8.15    1.12
  -6  -4 -10    6.90    0.61
   6   4  10    6.30    0.86
  -6   4 -10    6.54    0.65
  -6   4 -10    9.63    1.20
  -8  -4 -10   29.89    1.88
  -8  -4 -10   28.59    1.34
   8  -4  10   31.32    1.72
  -8  -4 -10   28.61    1.33
  -8   4 -10   28.58    1.94
   8   4  10   28.33    1.65
  -8   4 -10   27.62    1.43
 -10  -4 -10    3.05    0.52
 -10  -4 -10    2.47    0.44
  10  -4  10    2.38    0.68
 -10   4 -10    2.15    0.49
  10   4  10    2.45    0.64
 -10   4 -10    2.76    0.89
 -12  -4 -10   -0.05    0.46
 -12  -4 -10    0.35    0.42
  12  -4  10    0.86    0.68
 -12   4 -10   -0.12    0.47
  12   4  10    1.32    0.68
 -12   4 -10    0.36    1.00
 -14  -4 -10    0.23    0.45
 -14  -4 -10   -0.62    0.55
  14  -4  10   -0.20    0.71
  14   4  10    0.09    0.67
 -14   4 -10   -0.28    0.51
 -14   4 -10    2.76    1.32
  16  -4  10    0.92    0.87
 -16  -4 -10    0.84    0.71
 -16  -4 -10    0.67    0.55
 -16   4 -10    2.69    1.64
  16   4  10    1.22    0.85
 -16   4 -10   -0.86    0.63
 -18  -4 -10   21.56    1.88
 -18  -4 -10   22.58    1.62
 -18   4 -10   24.78    3.68
 -18   4 -10   17.24    1.84
 -19  -5  10   10.44    1.85
 -19  -5  10   14.64    2.26
 -19  -5  10   14.62    1.92
 -19   5  10   13.26    1.66
 -19   5  10   11.36    2.24
 -17  -5  10    0.11    1.18
 -17  -5  10    1.75    1.42
 -17  -5  10    2.14    0.78
 -17   5  10   -0.16    1.47
 -17   5  10    0.62    0.75
 -15  -5  10   16.46    2.04
 -15  -5  10   17.11    2.22
 -15  -5  10   17.84    1.48
  15   5 -10   17.40    1.22
 -15   5  10   13.65    2.07
 -15   5  10   16.10    1.29
 -13  -5  10    0.05    0.48
 -13  -5  10   -0.14    0.90
  13   5 -10    0.71    0.44
 -13   5  10    0.85    1.03
 -11  -5  10    1.64    0.50
 -11  -5  10    0.36    0.68
 -11   5  10    1.40    0.84
 -11   5  10    2.12    0.40
  11   5 -10    1.15    0.41
  -9  -5  10   -0.03    0.67
  -9   5  10    1.03    0.66
   9   5 -10    0.66    0.36
   9   5 -10    0.43    0.77
  -9   5  10    0.77    0.51
   7  -5 -10   13.64    0.72
  -7  -5  10   12.86    1.35
  -7  -5  10   11.56    1.15
   7   5 -10   13.57    1.31
  -7   5  10   12.06    1.20
  -7   5  10   11.15    1.06
  -7   5  10   12.67    0.73
   7   5 -10   12.91    0.85
  -5  -5  10    2.00    0.61
  -5  -5  10    1.71    0.51
   5  -5 -10    1.73    0.30
  -5   5  10    1.96    0.49
   5   5 -10    1.93    0.39
  -5   5  10    1.71    0.34
   5   5 -10    1.70    0.62
  -5   5  10    1.57    0.50
  -3  -5  10   19.97    1.28
   3  -5 -10   21.45    0.94
  -3  -5  10   21.34    1.49
  -3  -5  10   21.30    0.87
   3   5 -10   21.87    1.44
   3   5 -10   23.20    1.11
  -3   5  10   21.59    0.87
  -3   5  10   21.05    1.07
  -3   5  10   20.36    1.28
   3   5 -10   22.84    0.75
  -3   5  10   21.69    1.24
  -1  -5  10    1.77    0.55
   1  -5 -10    1.19    0.26
  -1  -5  10    1.09    0.42
  -1  -5  10    1.11    0.18
   1   5 -10    1.34    0.32
   1   5 -10    1.36    0.29
   1   5 -10    1.54    0.59
  -1   5  10    1.33    0.42
  -1   5  10    0.85    0.31
  -1   5  10    2.23    0.45
   1  -5  10    4.32    0.30
   1  -5  10    5.20    0.78
  -1  -5 -10    3.92    0.43
   1  -5  10    4.66    0.68
  -1  -5 -10    4.44    0.65
  -1   5 -10    4.21    0.81
   1   5  10    3.86    0.60
  -1   5 -10    4.43    0.53
   1   5  10    4.26    0.65
   3  -5  10    9.92    0.94
  -3  -5 -10    8.83    0.62
   3  -5  10    7.91    0.40
  -3  -5 -10    8.18    0.50
   3  -5  10    7.97    0.88
  -3  -5 -10    8.58    1.01
   3   5  10    9.71    0.87
  -3   5 -10    8.52    0.71
   3   5  10    7.75    1.09
  -3   5 -10    8.20    1.12
  -5  -5 -10    1.05    0.30
   5  -5  10    1.25    0.51
   5  -5  10    0.50    0.42
  -5  -5 -10    2.34    0.76
  -5  -5 -10    1.04    0.31
   5   5  10    0.78    0.39
  -5   5 -10    0.44    0.53
  -5   5 -10    0.99    0.34
  -7  -5 -10   -0.07    0.25
  -7  -5 -10    0.00    0.30
   7  -5  10   -0.78    0.41
  -7  -5 -10    0.32    0.18
   7   5  10    0.50    0.43
  -7   5 -10   -0.05    0.28
  -7   5 -10    0.23    0.60
  -9  -5 -10    0.23    0.30
  -9  -5 -10    0.20    0.35
  -9  -5 -10   -0.13    0.28
   9  -5  10    0.49    0.55
   9   5  10    0.87    0.53
  -9   5 -10    0.60    0.78
  -9   5 -10    0.41    0.36
 -11  -5 -10    0.22    0.34
 -11  -5 -10    0.38    0.44
  11  -5  10    0.44    0.64
 -11   5 -10    2.13    1.00
  11   5  10    0.28    0.54
 -11   5 -10    0.68    0.43
 -13  -5 -10    1.51    0.49
  13  -5  10    0.76    0.70
 -13  -5 -10    2.37    0.81
 -13   5 -10    1.27    0.54
  13   5  10    0.49    0.64
 -13   5 -10    1.86    1.14
 -15  -5 -10   -0.45    0.46
  15  -5  10    0.28    0.82
 -15  -5 -10   -0.20    0.63
  15   5  10   -0.06    0.77
 -15   5 -10   -0.16    1.50
 -15   5 -10    0.17    0.63
  17  -5  10    1.87    1.03
 -17  -5 -10    0.58    0.61
 -17  -5 -10    0.42    0.83
 -17   5 -10    1.58    1.85
  17   5  10    0.26    0.97
 -17   5 -10    0.11    0.76
 -18  -6  10   14.10    1.71
 -18  -6  10   10.01    1.98
 -18  -6  10    7.60    1.85
 -18   6  10   11.14    2.23
 -18   6  10   10.48    1.42
 -16  -6  10   24.77    1.81
 -16  -6  10   21.72    2.48
 -16  -6  10   25.67    2.74
 -16   6  10   21.60    1.49
 -16   6  10   21.08    2.88
  16   6 -10   25.66    1.89
 -14  -6  10    1.49    0.65
 -14  -6  10    0.48    1.01
  14   6 -10    1.22    0.57
 -12  -6  10    1.05    0.51
 -12  -6  10    0.59    0.96
  12   6 -10   -0.59    0.40
 -12   6  10    0.39    0.88
 -10  -6  10    0.86    0.77
 -10   6  10    0.64    0.73
  10   6 -10   -0.01    0.37
 -10   6  10   -0.02    0.53
  -8  -6  10   26.54    1.92
  -8  -6  10   26.60    1.67
   8   6 -10   29.51    1.37
  -8   6  10   27.25    1.82
  -8   6  10   26.07    1.59
   8   6 -10   25.66    1.87
  -8   6  10   25.45    1.26
  -6  -6  10   26.52    1.58
  -6  -6  10   24.92    1.76
   6  -6 -10   27.93    1.16
  -6   6  10   25.93    1.11
   6   6 -10   26.88    1.73
   6   6 -10   26.52    1.30
  -6   6  10   26.29    1.50
  -6   6  10   28.61    1.63
   4  -6 -10    4.63    0.47
  -4  -6  10    4.77    0.85
  -4  -6  10    5.33    0.77
  -4  -6  10    4.53    0.43
  -4   6  10    4.46    0.53
   4   6 -10    7.77    1.10
  -4   6  10    4.31    0.65
  -4   6  10    5.13    0.75
   4   6 -10    5.65    0.61
  -2  -6  10   16.03    1.18
  -2  -6  10   16.43    1.29
   2  -6 -10   15.19    0.80
  -2   6  10   15.96    0.96
   2   6 -10   13.50    1.32
   2   6 -10   14.44    0.85
   2   6 -10   15.77    0.94
  -2   6  10   17.04    0.83
  -2   6  10   14.94    1.07
  -2   6  10   15.89    0.95
   0  -6 -10    8.84    0.48
   0  -6  10    9.88    0.99
   0  -6  10   10.46    1.08
   0  -6 -10    9.18    0.63
   0  -6  10    8.72    0.48
   0   6  10    9.48    0.89
   0   6 -10    8.91    1.22
   0   6  10    9.32    0.62
   0   6  10    9.55    0.87
   0   6 -10    9.19    0.74
   2  -6  10    6.86    0.40
   2  -6  10    5.59    0.86
  -2  -6 -10    7.54    0.58
  -2  -6 -10    6.55    0.40
   2  -6  10    5.27    0.74
  -2   6 -10    9.67    1.20
   2   6  10    7.57    0.84
   2   6  10    8.20    0.96
  -2   6 -10    6.04    0.65
   4  -6  10   11.92    1.11
   4  -6  10   12.40    0.57
  -4  -6 -10   12.52    0.55
  -4  -6 -10   12.12    0.76
   4  -6  10   12.89    1.09
  -4   6 -10   10.65    1.27
  -4   6 -10   12.22    0.88
   4   6  10   13.34    1.06
  -6  -6 -10    6.66    0.64
  -6  -6 -10    6.72    0.61
  -6  -6 -10    7.21    0.44
   6  -6  10    7.25    0.97
  -6   6 -10    5.60    0.90
   6   6  10    7.41    0.92
  -6   6 -10    6.88    0.73
  -8  -6 -10    8.70    0.73
   8  -6  10    7.81    1.06
  -8  -6 -10    8.18    0.53
  -8  -6 -10    8.17    0.75
  -8   6 -10    8.44    1.15
   8   6  10    9.30    1.05
  -8   6 -10    6.62    0.77
  10  -6  10   41.04    2.17
 -10  -6 -10   40.96    1.80
 -10  -6 -10   42.26    1.81
 -10   6 -10   40.70    1.93
 -10   6 -10   42.70    2.57
  10   6  10   40.22    2.12
 -12  -6 -10    2.86    0.64
 -12  -6 -10    1.99    0.52
  12  -6  10    1.28    0.74
 -12   6 -10    3.19    1.20
 -12   6 -10    2.03    0.56
 -14  -6 -10   10.47    1.03
 -14  -6 -10    9.48    1.25
  14  -6  10   10.26    1.53
 -14   6 -10   12.77    1.93
  14   6  10   12.13    1.49
 -14   6 -10   10.44    1.23
 -16  -6 -10    3.55    0.90
  16  -6  10    2.09    1.11
  16   6  10    1.30    0.96
 -16   6 -10    5.15    0.96
 -16   6 -10    4.50    1.80
 -17  -7  10   36.21    2.30
 -17  -7  10   37.89    3.34
  17   7 -10   38.78    2.08
 -17   7  10   35.63    3.68
 -17   7  10   35.01    1.80
 -15  -7  10    9.20    1.63
 -15  -7  10   10.65    1.37
 -15   7  10   10.11    1.81
  15   7 -10   11.70    1.24
 -13  -7  10   39.13    2.72
 -13   7  10   39.10    2.91
  13   7 -10   38.56    1.88
 -11  -7  10   13.48    1.80
 -11   7  10   15.69    1.84
 -11   7  10   16.71    1.39
  11   7 -10   16.27    1.16
  -9  -7  10   16.02    1.45
  -9  -7  10   15.33    1.66
   9   7 -10   16.17    1.10
  -9   7  10   17.53    1.59
  -9   7  10   17.16    1.33
   9   7 -10   17.05    1.86
  -7  -7  10    0.71    0.59
   7  -7 -10    1.09    0.33
  -7  -7  10   -0.31    0.61
  -7   7  10    1.13    0.27
  -7   7  10    0.51    0.50
   7   7 -10    1.33    0.88
  -7   7  10    0.97    0.58
   7   7 -10    1.71    0.44
   5  -7 -10    5.98    0.56
  -5  -7  10    4.82    0.83
  -5  -7  10    7.00    0.53
  -5  -7  10    5.17    0.76
   5   7 -10    5.96    0.69
  -5   7  10    5.43    0.75
  -5   7  10    6.05    0.89
  -5   7  10    4.96    0.54
  -3  -7  10   15.96    0.76
  -3  -7  10   14.97    1.20
   3  -7 -10   13.91    0.81
  -3  -7  10   14.39    1.34
  -3   7  10   16.17    0.88
  -3   7  10   13.88    1.07
   3   7 -10   15.01    0.97
  -3   7  10   13.95    0.98
   3   7 -10   16.38    1.49
   1  -7 -10  151.79    4.88
  -1  -7  10  154.61    5.25
   1  -7 -10  147.99    4.72
  -1  -7  10  151.12    5.53
  -1  -7  10  149.27    4.73
  -1   7  10  154.37    4.82
   1   7 -10  152.30    5.45
  -1   7  10  153.44    5.03
  -1   7  10  151.28    5.21
   1   7 -10  152.95    5.07
   1  -7  10    5.85    0.84
  -1  -7 -10    5.15    0.55
  -1  -7 -10    6.19    0.45
   1  -7  10    6.54    0.95
   1  -7  10    5.71    0.50
   1   7  10    5.50    0.76
   1   7  10    5.68    0.75
  -1   7 -10    5.34    0.66
  -1   7 -10    6.84    1.01
  -3  -7 -10  102.26    3.43
  -3  -7 -10   98.76    3.17
   3  -7  10  100.22    3.73
   3  -7  10   99.41    3.94
  -3   7 -10  104.01    4.02
   3   7  10   98.86    3.71
  -3   7 -10  102.09    3.59
  -5  -7 -10   66.30    2.35
   5  -7  10   69.39    2.80
   5  -7  10   66.48    2.27
  -5  -7 -10   69.40    2.49
  -5  -7 -10   66.40    2.21
   5   7  10   65.09    2.76
  -5   7 -10   72.03    2.67
  -5   7 -10   68.58    3.10
  -7  -7 -10   10.95    0.82
   7  -7  10   13.25    1.20
  -7  -7 -10   11.48    0.65
  -7  -7 -10   11.14    0.80
   7   7  10   11.89    1.12
  -7   7 -10   13.01    1.49
  -7   7 -10   11.59    0.94
  -9  -7 -10    1.82    0.49
  -9  -7 -10    3.06    0.53
   9  -7  10    3.48    0.79
  -9  -7 -10    2.19    0.49
  -9   7 -10    3.04    0.58
  -9   7 -10    4.70    1.10
   9   7  10    2.56    0.64
  11  -7  10   13.46    1.45
 -11  -7 -10   14.08    1.14
 -11  -7 -10   14.98    1.05
  11   7  10   12.68    1.35
 -11   7 -10   12.89    1.14
 -11   7 -10   15.72    1.98
  13  -7  10    5.76    1.09
 -13  -7 -10    7.85    1.17
 -13  -7 -10    5.58    0.74
  13   7  10    6.55    1.03
 -13   7 -10    5.66    0.85
 -13   7 -10    6.09    1.54
 -15  -7 -10    6.73    1.01
 -15  -7 -10    7.02    0.89
  15  -7  10    9.42    1.36
  15   7  10    7.44    1.27
 -15   7 -10    6.54    1.05
 -15   7 -10    6.14    1.73
 -17  -7 -10   25.97    2.05
 -17  -7 -10   26.29    1.78
 -17   7 -10   26.61    3.56
 -17   7 -10   27.45    2.05
 -18  -8  10   27.03    3.45
 -18  -8  10   20.87    2.06
  18   8 -10   21.96    1.98
 -18   8  10   20.06    2.84
 -16  -8  10   75.41    3.41
 -16  -8  10   73.04    4.27
 -16   8  10   70.80    4.60
  16   8 -10   76.26    3.12
 -14  -8  10   10.83    1.68
 -14   8  10   11.53    1.92
  14   8 -10   11.13    1.25
 -12  -8  10   -0.26    0.97
 -12   8  10    0.35    0.68
 -12   8  10    0.87    1.08
  12   8 -10    0.49    0.62
 -10  -8  10    6.29    1.00
 -10  -8  10    4.97    1.14
 -10   8  10    6.85    1.18
 -10   8  10    4.17    0.80
  10   8 -10    3.21    0.63
   8  -8 -10   38.84    1.61
  -8  -8  10   35.93    2.32
  -8  -8  10   37.72    2.07
  -8   8  10   38.62    2.17
  -8   8  10   37.74    1.94
   8   8 -10   36.16    1.77
   8   8 -10   39.40    2.49
  -6  -8  10  119.61    3.85
  -6  -8  10  118.85    4.70
   6  -8 -10  118.36    3.87
  -6  -8  10  115.56    4.27
   6   8 -10  113.22    4.54
  -6   8  10  114.17    4.22
   6   8 -10  117.16    4.08
  -6   8  10  111.15    4.20
  -6   8  10  114.13    3.62
  -4  -8  10   16.12    1.50
  -4  -8  10   17.14    0.86
   4  -8 -10   16.74    0.92
  -4  -8  10   17.55    1.31
  -4   8  10   16.31    1.20
   4   8 -10   15.56    1.05
  -4   8  10   16.36    0.87
   4   8 -10   16.11    1.53
   2  -8 -10   46.61    1.81
   2  -8 -10   45.21    1.70
  -2  -8  10   46.65    2.39
  -2  -8  10   48.02    1.71
  -2  -8  10   50.39    2.19
   2   8 -10   46.62    1.98
  -2   8  10   47.94    2.10
  -2   8  10   44.75    1.85
  -2   8  10   46.13    1.74
   2   8 -10   47.63    2.43
   0  -8  10  102.86    3.74
   0  -8 -10   99.96    3.42
   0  -8 -10  100.55    3.26
   0  -8  10  100.30    4.03
   0  -8  10  101.24    3.28
   0   8 -10  101.37    4.04
   0   8  10   98.69    3.69
   0   8 -10  104.89    3.64
   0   8  10  101.71    3.64
   2  -8  10   59.60    2.02
   2  -8  10   58.76    2.47
   2  -8  10   56.54    2.70
  -2  -8 -10   59.96    2.20
   2   8  10   58.24    2.45
  -2   8 -10   58.70    2.35
  -2   8 -10   57.15    2.79
   4  -8  10    2.83    0.40
   4  -8  10    2.70    0.68
   4  -8  10    3.75    0.78
  -4  -8 -10    3.46    0.48
  -4   8 -10    4.02    0.94
  -4   8 -10    2.86    0.50
   4   8  10    3.04    0.59
  -6  -8 -10   15.74    0.78
   6  -8  10   15.71    0.78
  -6  -8 -10   15.92    0.99
   6  -8  10   14.66    1.26
  -6  -8 -10   14.99    0.81
  -6   8 -10   17.16    1.67
   6   8  10   16.60    1.23
  -6   8 -10   16.20    1.10
  -8  -8 -10   51.60    2.16
  -8  -8 -10   52.68    1.91
   8  -8  10   57.70    2.50
  -8  -8 -10   54.55    2.04
  -8   8 -10   57.44    2.92
  -8   8 -10   51.89    2.31
   8   8  10   53.95    2.45
 -10  -8 -10   63.31    2.59
 -10  -8 -10   69.31    2.56
  10  -8  10   66.57    2.93
 -10   8 -10   63.80    2.79
 -10   8 -10   65.46    3.39
  10   8  10   69.23    2.95
 -12  -8 -10    3.69    0.60
  12  -8  10    3.20    0.94
 -12  -8 -10    3.41    0.76
  12   8  10    5.63    0.99
 -12   8 -10    2.99    1.25
 -12   8 -10    4.16    0.73
 -14  -8 -10   14.46    1.26
 -14  -8 -10   13.70    1.51
  14  -8  10   11.78    1.49
  14   8  10   13.55    1.72
 -14   8 -10   12.72    1.46
 -14   8 -10   12.32    2.06
 -16  -8 -10   35.04    2.18
 -16  -8 -10   28.01    1.79
 -16   8 -10   25.50    3.34
 -16   8 -10   28.58    2.04
 -17  -9  10   36.72    3.53
  17   9 -10   31.37    2.15
 -17   9  10   32.95    3.96
 -15  -9  10    5.21    1.73
  15   9 -10    5.23    0.97
 -15   9  10    7.94    1.89
 -15   9  10    4.04    1.18
 -13  -9  10   38.53    3.00
 -13  -9  10   44.76    2.67
  13   9 -10   35.53    2.02
 -11  -9  10  124.87    5.42
 -11  -9  10  138.02    5.06
 -11   9  10  132.17    4.88
  11   9 -10  122.32    4.64
 -11   9  10  132.06    5.38
  -9  -9  10   54.25    2.65
  -9  -9  10   48.38    2.89
   9   9 -10   51.86    3.10
   9   9 -10   51.80    2.31
  -9   9  10   53.66    2.48
  -9   9  10   53.82    2.79
  -7  -9  10    0.75    0.34
   7  -9 -10    0.51    0.37
  -7  -9  10    0.09    0.60
  -7  -9  10    1.21    0.77
   7   9 -10    0.67    0.99
  -7   9  10   -0.38    0.63
   7   9 -10    0.16    0.40
  -7   9  10    0.75    0.53
  -5  -9  10   62.18    2.69
  -5  -9  10   59.43    3.02
  -5  -9  10   62.39    2.25
   5  -9 -10   60.66    2.29
  -5   9  10   59.96    2.04
   5   9 -10   62.67    2.51
  -5   9  10   59.87    2.50
  -5   9  10   60.46    2.58
   5   9 -10   64.04    3.02
   3  -9 -10  115.84    3.82
  -3  -9  10  118.23    4.64
   3  -9 -10  119.64    3.93
  -3  -9  10  120.73    4.26
  -3  -9  10  116.76    3.83
  -3   9  10  115.16    4.17
   3   9 -10  116.68    4.14
   3   9 -10  116.97    4.58
  -3   9  10  115.49    3.84
  -3   9  10  113.33    3.87
  -1  -9  10   62.09    3.06
   1  -9 -10   68.12    2.36
   1  -9 -10   67.93    2.50
  -1  -9  10   70.67    2.81
  -1  -9  10   70.27    2.38
   1   9 -10   70.69    3.15
   1   9 -10   68.93    2.69
  -1   9  10   70.44    2.63
  -1   9  10   67.68    2.73
   1  -9  10   -0.21    0.51
  -1  -9 -10    0.51    0.27
   1  -9  10   -0.27    0.50
  -1  -9 -10    0.34    0.34
   1  -9  10    0.45    0.24
  -1   9 -10   -0.07    0.36
  -1   9 -10    0.29    0.75
   1   9  10    0.14    0.43
  -3  -9 -10   32.07    1.48
   3  -9  10   36.54    1.80
  -3  -9 -10   33.14    1.32
   3  -9  10   33.64    2.01
   3  -9  10   34.40    1.32
   3   9  10   31.80    1.69
  -3   9 -10   31.89    2.14
  -3   9 -10   34.47    1.66
   5  -9  10  160.00    4.97
  -5  -9 -10  148.86    4.92
   5  -9  10  161.96    5.44
  -5  -9 -10  155.41    5.19
  -5   9 -10  155.39    5.37
  -5   9 -10  158.25    5.87
   5   9  10  159.26    5.44
   7  -9  10   96.86    3.58
   7  -9  10   93.38    3.09
  -7  -9 -10   90.95    3.32
  -7  -9 -10   91.66    3.05
  -7   9 -10   93.57    4.05
  -7   9 -10   90.45    3.48
   7   9  10   89.01    3.53
   9  -9  10    1.81    0.79
  -9  -9 -10    2.98    0.56
  -9  -9 -10    3.23    0.57
  -9   9 -10    3.29    0.67
   9   9  10    2.54    0.75
  -9   9 -10    2.25    1.01
  11  -9  10   34.34    2.07
 -11  -9 -10   30.76    1.63
 -11  -9 -10   33.43    1.69
 -11   9 -10   32.12    1.81
 -11   9 -10   32.34    2.62
 -13  -9 -10   90.51    3.45
 -13  -9 -10   85.69    3.41
  13  -9  10   91.78    3.86
  13   9  10   92.62    4.06
 -13   9 -10   90.86    4.52
 -13   9 -10   85.52    3.60
 -15  -9 -10   36.59    2.22
 -15  -9 -10   33.06    1.92
 -15   9 -10   38.89    2.24
 -15   9 -10   35.23    3.34
 -16 -10  10   25.46    3.31
 -16  10  10   31.18    2.52
  16  10 -10   25.14    2.06
 -16  10  10   23.52    3.73
 -14 -10  10   83.17    3.89
 -14 -10  10   76.86    4.26
 -14  10  10   65.44    4.39
  14  10 -10   74.93    3.27
 -14  10  10   78.92    3.57
 -12 -10  10   56.42    3.37
 -12  10  10   51.99    3.45
 -12  10  10   56.28    2.83
  12  10 -10   56.44    2.60
 -10 -10  10   34.67    2.28
 -10 -10  10   34.77    1.64
 -10 -10  10   35.33    2.58
 -10  10  10   33.26    2.47
  10  10 -10   32.43    1.85
 -10  10  10   33.64    1.97
  -8 -10  10  118.44    5.07
  -8 -10  10  122.18    4.57
  -8 -10  10  126.80    4.17
  -8  10  10  122.61    4.46
   8  10 -10  114.60    4.81
   8  10 -10  121.64    5.09
  -8  10  10  121.78    4.65
  -6 -10  10  241.48    7.51
   6 -10 -10  233.93    7.54
  -6 -10  10  239.01    7.90
  -6 -10  10  232.90    8.39
  -6  10  10  232.46    7.79
  -6  10  10  235.67    7.77
   6  10 -10  243.39    8.38
   6  10 -10  239.23    7.81
  -4 -10  10   13.11    1.53
  -4 -10  10   15.27    0.87
  -4 -10  10   14.70    1.33
   4 -10 -10   13.33    0.90
   4 -10 -10   15.19    0.96
   4  10 -10   12.26    1.70
  -4  10  10   14.99    1.18
  -4  10  10   12.75    0.79
   4  10 -10   12.42    1.06
  -2 -10  10  126.56    4.39
  -2 -10  10  118.96    4.80
  -2 -10  10  123.20    4.00
   2 -10 -10  120.36    4.11
   2 -10 -10  117.77    3.99
  -2  10  10  119.44    4.30
   2  10 -10  119.80    4.32
   2  10 -10  131.10    4.90
  -2  10  10  118.52    4.11
   0 -10  10   77.96    3.40
   0 -10  10   73.86    3.00
   0 -10 -10   75.22    2.79
   0 -10 -10   76.75    2.65
   0 -10  10   78.62    2.66
   0  10 -10   75.98    2.99
   0  10  10   79.61    3.00
   0  10 -10   76.45    3.48
  -2 -10 -10   48.96    1.98
  -2 -10 -10   47.31    1.80
   2 -10  10   48.87    2.20
   2 -10  10   46.78    2.49
   2 -10  10   49.16    1.82
   2  10  10   46.10    2.12
  -2  10 -10   51.33    2.69
  -2  10 -10   48.22    2.13
   4 -10  10   56.13    2.40
  -4 -10 -10   50.56    2.12
   4 -10  10   52.58    1.94
  -4 -10 -10   52.12    1.95
  -4  10 -10   52.63    2.85
  -4  10 -10   54.69    2.31
   4  10  10   53.42    2.32
  -6 -10 -10    0.71    0.45
   6 -10  10    0.25    0.63
  -6 -10 -10    0.66    0.41
   6 -10  10    0.59    0.37
  -6  10 -10    1.61    0.86
   6  10  10    0.75    0.54
  -6  10 -10    0.41    0.45
   8 -10  10  137.70    4.84
  -8 -10 -10  127.82    4.60
  -8  10 -10  135.50    5.43
   8  10  10  137.62    4.86
  -8  10 -10  132.80    4.80
  10 -10  10  140.78    4.99
 -10 -10 -10  130.57    4.71
  10  10  10  135.77    4.97
 -10  10 -10  141.41    5.65
 -10  10 -10  132.12    4.91
  12 -10  10   42.22    2.52
 -12 -10 -10   39.94    1.99
 -12  10 -10   39.83    3.06
  12  10  10   41.19    2.38
 -12  10 -10   37.29    2.17
 -14 -10 -10   23.67    1.67
 -14  10 -10   23.67    3.09
 -14  10 -10   27.21    1.88
 -15 -11  10    6.40    1.84
 -15 -11  10    7.27    1.85
  15  11 -10    5.59    1.40
 -15  11  10    3.95    2.08
 -13 -11  10   73.56    4.09
 -13 -11  10   72.45    3.73
 -13  11  10   75.88    3.64
  13  11 -10   66.89    3.15
 -13  11  10   68.18    4.18
 -11 -11  10  139.89    5.30
 -11 -11  10  136.27    4.70
 -11 -11  10  129.08    5.70
 -11  11  10  136.58    5.00
  11  11 -10  127.34    4.94
 -11  11  10  139.79    5.63
  -9 -11  10   19.87    1.59
  -9 -11  10   18.95    2.19
  -9 -11  10   20.12    1.92
  -9  11  10   20.69    1.62
   9  11 -10   21.75    1.51
  -9  11  10   20.84    1.96
   9  11 -10   20.98    2.84
   7 -11 -10    0.06    0.45
  -7 -11  10    0.13    1.33
  -7 -11  10   -0.15    0.82
  -7 -11  10    0.68    0.41
   7  11 -10   -0.47    0.49
   7  11 -10    0.99    1.20
  -7  11  10    0.69    0.67
  -5 -11  10   57.54    3.03
  -5 -11  10   56.40    2.17
   5 -11 -10   57.02    2.25
  -5 -11  10   57.85    2.59
   5 -11 -10   55.00    2.17
  -5  11  10   54.74    2.52
   5  11 -10   49.84    2.78
   5  11 -10   56.11    3.14
   3 -11 -10  156.76    5.23
  -3 -11  10  162.29    5.17
   3 -11 -10  154.13    5.11
  -3 -11  10  154.79    5.97
  -3 -11  10  156.60    5.44
   3  11 -10  162.53    6.03
   3  11 -10  157.67    5.46
  -3  11  10  154.46    5.06
  -3  11  10  158.90    5.37
  -1 -11  10   42.74    1.69
   1 -11 -10   40.81    1.80
  -1 -11  10   43.45    2.43
   1 -11 -10   40.32    1.70
  -1 -11  10   43.05    2.05
  -1  11  10   41.72    1.95
   1  11 -10   40.64    1.98
   1  11 -10   43.99    2.60
   1 -11  10    1.44    0.36
  -1 -11 -10    1.29    0.41
  -1 -11 -10    0.79    0.40
   1 -11  10    1.38    0.70
   1 -11  10    1.42    0.66
  -1  11 -10    0.31    0.94
   1  11  10    1.67    0.59
  -1  11 -10    0.68    0.43
   3 -11  10   47.01    1.77
  -3 -11 -10   44.72    1.92
   3 -11  10   41.91    2.51
   3 -11  10   41.84    2.13
  -3 -11 -10   45.05    1.79
  -3  11 -10   50.53    2.78
   3  11  10   44.65    2.07
  -3  11 -10   45.18    2.11
  -5 -11 -10  209.18    6.69
   5 -11  10  207.72    6.44
  -5 -11 -10  199.05    6.39
   5 -11  10  204.90    6.74
  -5  11 -10  205.20    7.43
   5  11  10  205.44    6.76
  -5  11 -10  190.66    7.26
   7 -11  10   33.90    1.50
  -7 -11 -10   33.10    1.67
  -7 -11 -10   34.59    1.63
   7 -11  10   33.19    1.96
  -7  11 -10   35.43    1.87
   7  11  10   34.21    1.87
  -7  11 -10   32.61    2.65
   9 -11  10    5.74    1.01
  -9 -11 -10    2.67    0.63
   9  11  10    2.24    0.84
  -9  11 -10    3.46    1.21
  -9  11 -10    3.94    0.77
  11 -11  10   16.72    2.28
 -11 -11 -10   17.57    1.32
 -11  11 -10   16.97    2.45
 -11  11 -10   16.98    1.54
  11  11  10   18.94    1.74
 -13 -11 -10   72.98    3.06
 -13  11 -10   76.65    3.30
 -13  11 -10   73.13    4.26
 -14 -12  10   29.69    3.25
 -14 -12  10   20.82    1.63
  14  12 -10   20.41    1.99
 -12 -12  10    0.02    1.41
 -12 -12  10    0.22    0.65
  12  12 -10    0.23    0.80
 -10 -12  10    2.92    1.38
 -10 -12  10    3.31    0.70
  10  12 -10    2.69    0.77
  -8 -12  10   77.10    3.95
  -8 -12  10   78.51    2.98
  -8 -12  10   81.33    3.52
   8  12 -10   81.79    4.32
   8  12 -10   78.04    3.29
  -6 -12  10   32.67    2.15
  -6 -12  10   34.05    1.62
   6 -12 -10   35.63    1.67
  -6 -12  10   33.40    2.47
   6  12 -10   33.55    2.84
  -6  12  10   36.85    2.16
   6  12 -10   32.65    1.89
  -4 -12  10   19.21    1.64
  -4 -12  10   16.76    1.88
  -4 -12  10   17.57    1.06
   4 -12 -10   17.87    1.36
   4 -12 -10   18.71    1.17
  -4  12  10   15.81    1.28
   4  12 -10   21.03    2.25
   4  12 -10   14.40    1.29
  -2 -12  10    2.98    1.39
   2 -12 -10    6.44    0.82
  -2 -12  10    5.17    0.92
  -2 -12  10    4.66    0.58
   2 -12 -10    5.15    0.74
   2  12 -10    4.54    1.24
   2  12 -10    5.22    0.78
  -2  12  10    5.54    0.78
   0 -12  10  127.72    6.10
   0 -12 -10  146.90    4.79
   0 -12  10  149.42    4.81
   0 -12  10  153.23    5.04
   0  12  10  150.48    4.98
   0  12 -10  142.01    5.17
   0  12 -10  151.61    5.78
   2 -12  10   78.45    3.10
  -2 -12 -10   77.57    2.96
   2 -12  10   76.74    3.58
   2 -12  10   81.16    2.81
  -2 -12 -10   77.14    2.80
   2  12  10   83.23    3.05
  -2  12 -10   75.10    3.13
  -2  12 -10   76.15    3.72
   4 -12  10    0.32    0.39
  -4 -12 -10    1.09    0.51
  -4 -12 -10    0.16    0.41
  -4  12 -10   -0.12    1.05
   4  12  10   -0.79    0.58
  -4  12 -10    0.74    0.52
  -6 -12 -10   24.83    1.45
  -6 -12 -10   24.77    1.44
   6 -12  10   29.43    1.35
  -6  12 -10   25.00    1.62
  -6  12 -10   27.09    2.42
   6  12  10   28.51    1.66
   8 -12  10   35.55    1.59
  -8 -12 -10   31.96    1.75
  -8  12 -10   33.44    1.94
  -8  12 -10   35.24    2.75
   8  12  10   35.98    2.00
 -10 -12 -10   46.91    2.23
 -10  12 -10   47.83    2.43
 -10  12 -10   47.89    3.28
 -12 -12 -10    1.99    0.72
 -12  12 -10    4.01    1.54
 -12  12 -10    3.01    0.92
 -13 -13  10   32.64    1.89
 -13 -13  10   27.91    3.40
  13  13 -10   30.57    2.27
 -11 -13  10   25.91    2.95
 -11 -13  10   25.03    1.69
  11  13 -10   26.28    1.95
  -9 -13  10   18.39    2.42
  -9 -13  10   14.82    1.26
   9  13 -10   15.83    1.56
  -7 -13  10    6.34    1.35
   7 -13 -10    6.58    0.84
  -7 -13  10    7.39    0.99
   7  13 -10    6.38    1.01
   7  13 -10    5.86    1.76
  -5 -13  10   11.37    1.54
   5 -13 -10    8.22    1.05
  -5 -13  10    8.42    1.17
   5 -13 -10    9.65    1.08
   5  13 -10    9.06    1.62
   5  13 -10    7.98    1.14
   3 -13 -10   20.25    1.34
   3 -13 -10   16.74    1.25
  -3 -13  10   20.28    1.20
  -3 -13  10   18.56    1.96
   3  13 -10   19.23    2.39
   3  13 -10   20.37    1.48
  -1 -13  10   87.61    4.08
  -1 -13  10   96.42    3.29
   1 -13 -10   95.82    3.30
   1 -13 -10   86.67    3.37
   1  13 -10   96.13    4.39
   1  13 -10   87.45    3.58
   1 -13  10    2.86    0.96
  -1 -13 -10    3.04    0.61
   1 -13  10    2.92    0.53
  -1 -13 -10    3.28    0.63
  -1  13 -10    2.61    0.72
  -1  13 -10    4.46    1.29
   3 -13  10  115.24    3.79
  -3 -13 -10  107.86    3.77
  -3 -13 -10  104.75    3.92
  -3  13 -10  114.14    4.88
  -3  13 -10  105.10    4.12
   5 -13  10   49.23    1.99
  -5 -13 -10   47.46    2.07
  -5 -13 -10   46.08    2.13
  -5  13 -10   45.75    3.00
  -5  13 -10   46.02    2.30
  -7 -13 -10    2.75    0.67
  -7  13 -10    2.37    1.34
  -7  13 -10    2.22    0.74
  -9 -13 -10    0.59    0.59
  -9  13 -10    0.80    0.72
  -9  13 -10    1.13    1.29
 -11 -13 -10   24.34    1.63
 -11  13 -10   23.55    2.92
 -11  13 -10   19.44    1.78
 -10 -14  10    0.49    0.71
 -10 -14  10    2.28    1.63
  10  14 -10    1.73    0.87
  -8 -14  10   23.46    2.74
  -8 -14  10   28.02    1.64
   8  14 -10   28.01    1.96
  -6 -14  10   15.13    2.33
   6 -14 -10   17.17    1.41
  -6 -14  10   16.64    1.28
   6 -14 -10   15.95    1.42
   6  14 -10   20.55    3.08
   6  14 -10   16.77    1.58
   4 -14 -10    1.38    0.59
  -4 -14  10    1.22    0.56
   4 -14 -10    0.02    0.62
  -4 -14  10    0.96    1.05
   4  14 -10    1.32    0.63
   4  14 -10    1.68    1.47
  -2 -14  10    0.16    0.92
  -2 -14  10    0.54    0.53
   2 -14 -10    1.05    0.56
   2  14 -10   -1.64    1.36
   2  14 -10    1.18    0.67
  -2  14  10    1.02    0.46
   0 -14 -10   13.06    1.23
   0 -14 -10   12.07    1.16
   0 -14  10   12.71    1.87
   0 -14  10   10.55    1.11
   0  14 -10   12.79    1.89
   0  14 -10   13.00    1.36
   0  14  10   11.35    1.03
  -2 -14 -10   19.72    1.35
  -2 -14 -10   17.55    1.37
   2 -14  10   17.16    1.31
  -2  14 -10   18.79    1.49
  -2  14 -10   17.17    2.36
   4 -14  10    2.60    0.55
  -4 -14 -10    1.96    0.88
  -4 -14 -10    1.19    0.55
  -4  14 -10    0.91    1.35
  -4  14 -10    1.15    0.72
  -6 -14 -10    0.37    0.58
   6 -14  10    0.96    0.58
  -6  14 -10    0.29    0.71
  -6  14 -10    0.22    1.27
  -8 -14 -10    9.43    1.24
  -8  14 -10   10.22    1.47
  -8  14 -10    6.74    1.76
 -10 -14 -10   23.58    1.67
 -10  14 -10   21.46    1.88
 -10  14 -10   19.95    2.94
  -9 -15  10    0.79    1.60
  -9 -15  10    0.88    0.74
   9  15 -10    1.12    0.95
  -7 -15  10    3.44    1.59
  -7 -15  10    4.24    0.83
   7  15 -10    4.70    1.02
   7  15 -10    1.02    3.01
   5 -15 -10    3.26    0.84
  -5 -15  10    3.04    0.74
  -5 -15  10    5.62    1.45
   5 -15 -10    2.65    0.77
   5  15 -10    2.28    0.84
   5  15 -10    2.78    1.85
   3 -15 -10   -0.55    0.68
  -3 -15  10    1.14    1.16
   3 -15 -10    0.95    0.68
  -3 -15  10   -0.43    0.59
   3  15 -10   -1.03    0.70
   3  15 -10    2.33    1.63
  -1 -15  10    1.15    1.14
   1 -15 -10    1.16    0.68
  -1 -15  10    0.91    0.61
   1 -15 -10    2.12    0.78
  -1  15  10    1.09    0.53
   1  15 -10   -0.67    1.48
   1  15 -10    2.60    0.79
   1 -15  10    0.77    0.62
  -1 -15 -10   -0.06    0.61
  -1 -15 -10    1.23    0.74
  -1  15 -10    1.35    1.50
  -1  15 -10    2.24    0.79
   1  15  10    1.04    0.62
   3 -15  10   -0.12    0.57
  -3 -15 -10    1.53    0.63
  -3  15 -10    1.31    0.75
  -3  15 -10    1.28    1.49
  -5 -15 -10    0.61    0.64
   5 -15  10    0.02    0.64
  -5  15 -10   -1.39    1.46
  -5  15 -10    0.63    0.78
  -7 -15 -10    4.57    0.82
  -7  15 -10    5.20    1.72
  -7  15 -10    3.60    0.93
  -6 -16  10    0.04    1.50
  -6 -16  10    0.72    0.75
   6 -16 -10    0.53    0.85
   6  16 -10   -0.23    0.90
   6  16 -10    2.38    2.23
   4 -16 -10   -0.47    0.82
  -4 -16  10    1.25    0.73
  -4 -16  10    1.03    1.46
   4  16 -10    2.46    1.91
   4  16 -10    0.31    0.83
  -2 -16  10   -0.98    1.29
   2 -16 -10    0.95    0.76
  -2 -16  10    2.02    0.72
   2 -16 -10    0.87    0.67
   2  16 -10    3.23    1.81
   2  16 -10    0.81    0.81
   0 -16 -10    2.28    0.83
   0 -16 -10    3.31    0.93
   0 -16  10    2.05    0.74
   0  16  10    3.21    0.71
   0  16 -10    2.26    0.86
   0  16 -10    2.16    1.81
   2 -16  10   12.21    1.31
  -2 -16 -10   12.65    1.38
  -2  16 -10   13.35    2.07
   2  16  10   11.19    1.26
  -2  16 -10   12.48    1.55
  -4 -16 -10    3.58    0.83
   4 -16  10    4.57    0.83
  -4  16 -10    1.96    0.89
  -4  16 -10    2.52    1.66
   4  16  10    2.88    0.84
 -20   0  11    0.08    2.22
 -18   0  11    3.07    0.98
 -18   0  11   -2.23    0.97
 -18   0  11    0.60    1.44
 -16   0  11    2.05    1.28
 -16   0  11    1.48    0.84
 -14   0  11    0.07    0.56
 -14   0  11    1.15    1.06
 -12   0  11    1.23    0.84
 -12   0  11    0.99    0.45
 -10   0  11   -0.11    0.66
  -8   0  11    0.42    0.57
  -8   0  11    0.29    0.56
  -6   0  11   -0.03    0.45
  -6   0  11   -0.28    0.47
   6   0 -11    0.44    0.18
  -6   0  11    0.30    0.41
  -4   0  11    0.04    0.41
  -4   0  11   -0.22    0.37
   4   0 -11    0.13    0.14
  -4   0  11    0.35    0.16
   4   0 -11    0.03    0.51
  -4   0  11   -0.33    0.44
   4   0 -11    0.78    0.30
   2   0 -11    0.53    0.33
   2   0 -11   -0.29    0.49
  -2   0  11   -0.09    0.48
  -2   0  11    0.35    0.38
  -2   0  11    0.23    0.37
   2   0 -11    0.17    0.16
   2   0 -11   -0.06    0.19
   0   0 -11    0.22    0.23
   0   0 -11    0.84    0.51
   0   0  11    0.11    0.37
   0   0  11    0.47    0.35
   0   0  11    0.96    0.52
   0   0 -11    0.16    0.19
  -2   0 -11    0.30    0.52
   2   0  11    0.29    0.34
   2   0  11   -0.37    0.63
  -2   0 -11    0.26    0.21
   2   0  11   -0.20    0.32
  -2   0 -11    0.08    0.24
  -4   0 -11    0.21    0.56
  -4   0 -11   -0.47    0.23
   4   0  11    0.10    0.36
   4   0  11    0.46    0.35
  -6   0 -11    0.54    0.68
  -6   0 -11    0.33    0.29
   6   0  11   -0.40    0.37
   8   0  11    0.15    0.46
  -8   0 -11   -0.39    0.31
  -8   0 -11    0.45    0.84
  10   0  11   -0.13    0.53
 -10   0 -11    0.23    0.41
 -10   0 -11    1.52    0.99
  12   0  11    0.94    0.78
 -12   0 -11   -0.32    1.20
  14   0  11    0.99    0.77
 -14   0 -11   -0.52    0.53
 -16   0 -11   -0.83    0.68
  16   0  11   -1.82    0.83
  18   0  11   -0.59    1.08
 -18   0 -11   -0.81    0.87
 -19  -1  11    1.49    1.28
 -19  -1  11    2.66    1.74
 -19  -1  11    2.05    1.10
 -19   1  11    1.72    1.81
 -19   1  11    2.26    1.16
 -17  -1  11    0.52    0.86
 -17  -1  11    1.06    1.45
 -17  -1  11    0.58    0.97
 -17   1  11    2.26    0.98
 -17   1  11    3.22    1.25
 -17   1  11    1.96    1.45
 -15  -1  11    0.51    0.63
 -15  -1  11   -0.22    0.73
 -15  -1  11    1.27    1.06
 -15   1  11    0.34    0.67
 -15   1  11   -0.11    0.65
 -15   1  11   -0.47    1.07
 -13  -1  11   -0.31    0.86
 -13  -1  11    1.33    0.52
 -13   1  11    0.39    0.86
 -13   1  11    0.86    0.55
 -11  -1  11   28.12    2.11
 -11  -1  11   28.76    1.49
 -11   1  11   26.44    2.11
 -11   1  11   30.21    1.44
  -9  -1  11   19.87    1.69
  -9  -1  11   18.97    1.44
   9   1 -11   20.35    0.91
  -9   1  11   20.23    1.66
  -9   1  11   20.87    1.51
  -7  -1  11    8.19    0.98
  -7  -1  11    7.31    1.09
  -7   1  11    7.31    1.06
  -7   1  11    8.26    0.95
  -7   1  11    8.62    0.84
   7   1 -11    7.05    0.52
   5  -1 -11   28.75    1.00
   5  -1 -11   27.92    1.63
  -5  -1  11   28.30    1.72
  -5  -1  11   28.14    1.60
  -5  -1  11   28.08    1.06
  -5  -1  11   28.47    1.52
  -5   1  11   28.14    1.59
   5   1 -11   26.75    1.27
   5   1 -11   27.97    1.12
  -5   1  11   27.58    1.04
  -5   1  11   31.18    1.53
  -5   1  11   29.03    1.68
  -3  -1  11   66.67    2.78
  -3  -1  11   60.10    2.66
   3  -1 -11   70.12    2.12
   3  -1 -11   64.76    2.10
   3  -1 -11   67.25    2.41
  -3  -1  11   66.06    2.01
  -3  -1  11   65.81    2.61
   3  -1 -11   63.32    2.07
  -3   1  11   67.12    2.00
  -3   1  11   61.93    2.68
   3   1 -11   65.83    2.05
  -3   1  11   64.44    2.69
  -3   1  11   59.36    2.61
   3   1 -11   60.92    2.20
   3   1 -11   64.44    2.27
  -1  -1  11    1.24    0.51
  -1  -1  11    2.26    0.62
   1  -1 -11    1.28    0.61
   1  -1 -11    1.23    0.26
  -1  -1  11    1.32    0.45
   1  -1 -11    2.07    0.35
   1  -1 -11    1.40    0.24
   1   1 -11    1.97    0.32
  -1   1  11    2.10    0.50
   1   1 -11    1.76    0.25
  -1   1  11    1.43    0.46
  -1   1  11    1.70    0.50
   1   1 -11    1.48    0.57
   1  -1  11   79.10    3.05
   1  -1  11   74.80    3.06
  -1  -1 -11   75.99    2.60
  -1  -1 -11   76.69    2.58
   1  -1  11   74.54    3.06
  -1  -1 -11   75.83    2.63
   1   1  11   80.79    3.07
  -1   1 -11   79.65    2.57
   1   1  11   76.37    3.07
   1   1  11   78.74    2.95
  -1   1 -11   78.65    2.69
  -1   1 -11   79.93    3.04
  -3  -1 -11    1.25    0.60
  -3  -1 -11    0.26    0.25
   3  -1  11    0.12    0.37
  -3  -1 -11    0.46    0.23
   3  -1  11    0.59    0.35
   3   1  11    0.47    0.75
  -3   1 -11   -0.04    0.55
   3   1  11    0.07    0.36
  -3   1 -11    0.12    0.25
   3   1  11    0.65    0.34
   5  -1  11    1.85    0.53
  -5  -1 -11    2.09    0.40
  -5  -1 -11    1.76    0.70
  -5   1 -11    2.76    0.77
  -5   1 -11    2.36    0.43
   5   1  11    2.34    0.57
   7  -1  11   12.00    1.10
  -7  -1 -11   10.81    0.83
  -7  -1 -11   10.42    1.42
  -7   1 -11   10.23    1.47
   7   1  11   10.54    1.07
  -7   1 -11    9.62    0.81
  -9  -1 -11    0.06    0.37
   9  -1  11   -0.41    0.48
  -9  -1 -11    0.73    1.02
  -9   1 -11    0.34    0.82
   9   1  11    0.35    0.52
  -9   1 -11    0.34    0.37
 -11  -1 -11   14.43    1.12
  11  -1  11   15.59    1.42
 -11  -1 -11   13.66    2.04
 -11   1 -11   14.82    1.80
 -11   1 -11   15.65    1.15
  11   1  11   16.41    1.41
  13  -1  11   13.65    1.46
 -13  -1 -11   14.55    1.24
 -13   1 -11   11.50    1.84
  13   1  11   11.33    1.43
 -13   1 -11   14.52    1.28
  15  -1  11    7.71    1.19
 -15  -1 -11    9.44    1.26
  15   1  11    8.00    1.20
 -15   1 -11    6.83    0.99
 -17  -1 -11    9.35    1.22
  17  -1  11    9.25    1.42
 -17   1 -11    8.34    1.17
  17   1  11    8.27    1.40
 -18  -2  11   42.05    3.55
 -18  -2  11   47.40    2.61
 -18  -2  11   38.66    2.92
 -18   2  11   47.23    3.74
 -18   2  11   36.48    2.54
 -16  -2  11    3.51    1.41
 -16  -2  11    2.85    1.05
 -16   2  11    6.57    1.50
 -16   2  11    3.21    0.92
 -14  -2  11    8.39    1.53
 -14  -2  11    9.61    1.13
 -14   2  11    8.01    1.09
 -14   2  11    9.85    1.82
 -12  -2  11    1.65    0.81
 -12  -2  11    1.95    0.53
 -12   2  11    1.84    0.52
  12   2 -11    1.22    0.34
 -12   2  11    0.30    0.83
 -10  -2  11   36.77    2.35
  10   2 -11   39.52    1.44
 -10   2  11   39.33    2.54
  -8  -2  11   94.13    4.00
  -8  -2  11   92.23    3.78
  -8   2  11   97.44    3.81
  -8   2  11  102.81    3.41
   8   2 -11   95.23    3.13
  -8   2  11   92.80    3.93
   6  -2 -11   24.48    0.90
  -6  -2  11   22.35    1.49
  -6  -2  11   22.66    1.61
  -6   2  11   24.99    1.25
  -6   2  11   21.59    1.46
   6   2 -11   23.69    1.49
  -6   2  11   25.09    1.59
   6   2 -11   23.63    1.04
  -4  -2  11   -0.49    0.44
  -4  -2  11    0.50    0.44
  -4  -2  11    1.25    0.58
   4  -2 -11    0.21    0.19
  -4  -2  11    0.24    0.20
   4   2 -11    0.59    0.24
  -4   2  11    0.19    0.18
   4   2 -11   -0.09    0.56
  -4   2  11    0.71    0.43
  -4   2  11    0.12    0.39
  -4   2  11   -0.21    0.37
  -2  -2  11  197.23    6.68
   2  -2 -11  199.54    6.12
  -2  -2  11  185.02    6.45
  -2  -2  11  188.52    6.56
   2  -2 -11  189.88    5.97
   2   2 -11  203.91    6.46
  -2   2  11  190.87    6.55
   2   2 -11  195.95    5.89
  -2   2  11  192.38    6.45
  -2   2  11  201.16    6.36
   2   2 -11  194.10    6.12
   0  -2 -11  101.85    3.09
   0  -2 -11   98.71    3.39
   0  -2  11   92.34    3.63
   0  -2  11   95.78    3.66
   0  -2  11   92.54    3.62
   0  -2 -11   95.49    3.13
   0   2  11   96.95    3.49
   0   2  11   94.16    3.63
   0   2 -11   93.31    3.24
   0   2 -11   95.36    3.58
   0   2  11  101.28    3.55
  -2  -2 -11    0.54    0.35
   2  -2  11    0.67    0.44
  -2  -2 -11   -0.13    0.18
   2  -2  11    0.64    0.41
  -2  -2 -11    0.57    0.56
  -2  -2 -11    0.31    0.23
  -2   2 -11    0.54    0.53
   2   2  11    0.16    0.35
  -2   2 -11    0.48    0.25
   2   2  11    0.17    0.62
   2   2  11    0.27    0.38
   4  -2  11   15.28    1.10
  -4  -2 -11   16.43    0.86
  -4  -2 -11   15.33    1.28
   4  -2  11   13.47    1.15
  -4  -2 -11   13.76    0.80
  -4   2 -11   14.13    0.89
  -4   2 -11   13.69    1.31
   4   2  11   16.62    1.00
   4   2  11   14.20    1.14
  -6  -2 -11   11.10    0.76
  -6  -2 -11   11.42    0.81
  -6  -2 -11   11.23    1.36
   6  -2  11   12.51    1.10
   6   2  11   10.85    1.05
  -6   2 -11   11.03    0.83
  -8  -2 -11   87.70    3.14
   8  -2  11   90.10    3.55
  -8  -2 -11   90.52    3.12
  -8  -2 -11   81.14    3.61
  -8   2 -11   90.33    3.23
  -8   2 -11   86.56    3.72
   8   2  11   86.64    3.53
  10  -2  11   14.95    1.40
 -10  -2 -11   18.40    1.18
  10   2  11   17.62    1.43
 -10   2 -11   21.24    2.02
 -10   2 -11   16.41    1.17
 -12  -2 -11    1.93    0.65
  12  -2  11    2.00    0.79
 -12   2 -11    2.09    1.36
 -12   2 -11    2.36    0.59
  12   2  11    3.78    0.86
 -14  -2 -11   31.00    1.80
  14  -2  11   33.53    2.15
  14   2  11   28.46    2.03
 -14   2 -11   40.02    3.25
 -14   2 -11   29.90    1.81
  16  -2  11   65.14    3.24
 -16  -2 -11   68.02    2.93
  16   2  11   56.00    3.09
 -16   2 -11   62.48    2.91
 -18  -2 -11    0.95    0.99
 -18  -2 -11    1.18    0.78
  18  -2  11    1.52    1.15
 -18   2 -11    0.97    0.96
  18   2  11    2.08    1.16
 -19  -3  11   24.41    2.86
 -19  -3  11   33.02    2.47
 -19  -3  11   34.22    3.54
 -19   3  11   38.34    3.75
 -19   3  11   31.14    2.31
 -17  -3  11    4.55    1.32
 -17  -3  11    4.19    1.54
 -17  -3  11    3.07    0.94
 -17   3  11    3.90    1.62
 -17   3  11    1.09    0.85
 -15  -3  11   35.14    2.03
 -15  -3  11   34.53    2.78
 -15   3  11   39.35    3.02
 -13  -3  11   89.33    3.43
 -13   3  11   91.49    3.23
  13   3 -11   86.94    2.95
 -13   3  11   82.73    4.20
 -11  -3  11   54.38    3.06
  11   3 -11   55.77    2.06
 -11   3  11   59.50    2.21
 -11   3  11   58.99    3.08
  -9  -3  11    2.25    0.84
  -9  -3  11    3.12    0.78
  -9   3  11    2.17    0.79
  -9   3  11    2.86    0.50
  -9   3  11    2.32    0.68
   9   3 -11    2.55    0.41
   7  -3 -11   57.93    1.87
  -7  -3  11   53.33    2.50
  -7  -3  11   53.07    2.68
   7   3 -11   55.64    2.02
   7   3 -11   54.79    2.49
  -7   3  11   54.84    2.13
  -7   3  11   55.68    2.53
  -7   3  11   56.29    2.60
  -5  -3  11   23.34    1.59
   5  -3 -11   18.13    1.14
  -5  -3  11   21.36    1.40
   5   3 -11   22.12    1.04
   5   3 -11   21.94    1.50
  -5   3  11   22.98    1.43
  -5   3  11   23.60    1.43
  -5   3  11   22.07    1.17
  -3  -3  11  153.19    4.66
  -3  -3  11  143.45    5.24
  -3  -3  11  148.18    5.33
   3  -3 -11  154.72    4.76
  -3  -3  11  152.52    5.49
  -3   3  11  150.83    5.34
  -3   3  11  149.46    5.24
  -3   3  11  160.41    4.63
   3   3 -11  152.49    5.25
   3   3 -11  156.20    4.59
   3   3 -11  153.69    4.92
  -3   3  11  153.67    5.04
  -1  -3  11    8.10    0.92
   1  -3 -11   10.10    0.88
   1  -3 -11    9.76    0.58
  -1  -3  11   10.06    1.01
   1   3 -11    9.54    0.68
  -1   3  11    9.83    0.88
   1   3 -11   11.06    1.10
  -1   3  11    9.74    0.95
  -1   3  11   11.93    0.97
  -1  -3 -11   65.97    2.14
  -1  -3 -11   66.47    2.49
  -1  -3 -11   65.32    2.25
  -1  -3 -11   62.89    2.13
   1  -3  11   64.53    2.74
   1  -3  11   63.07    2.69
  -1   3 -11   65.00    2.75
   1   3  11   64.18    2.70
   1   3  11   69.16    2.69
  -1   3 -11   63.73    2.37
   1   3  11   63.75    2.46
  -3  -3 -11  136.42    4.36
  -3  -3 -11  137.10    4.65
   3  -3  11  137.14    4.83
   3  -3  11  134.03    4.80
  -3  -3 -11  131.20    4.28
   3   3  11  132.71    4.80
   3   3  11  150.38    5.45
  -3   3 -11  128.42    4.47
  -3   3 -11  134.12    4.88
   3   3  11  128.36    4.54
   5  -3  11   78.07    3.13
   5  -3  11   76.71    3.09
  -5  -3 -11   73.91    2.68
  -5  -3 -11   75.24    3.08
  -5  -3 -11   75.21    2.66
  -5   3 -11   79.91    2.83
   5   3  11   77.87    3.13
  -5   3 -11   76.22    3.36
  -7  -3 -11    3.45    0.50
  -7  -3 -11    2.44    0.39
  -7  -3 -11    4.04    0.99
   7  -3  11    4.86    0.79
   7   3  11    3.16    0.73
  -7   3 -11    3.14    0.92
  -7   3 -11    3.65    0.56
   9  -3  11   51.41    2.50
  -9  -3 -11   52.12    2.08
  -9  -3 -11   50.20    2.11
  -9   3 -11   54.15    2.84
   9   3  11   49.65    2.47
  -9   3 -11   51.44    2.20
 -11  -3 -11   76.43    2.88
 -11  -3 -11   77.05    2.95
  11  -3  11   82.01    3.36
  11   3  11   73.45    3.27
 -11   3 -11   76.53    3.73
 -11   3 -11   71.55    3.09
 -13  -3 -11   23.75    1.53
  13  -3  11   25.15    1.88
 -13  -3 -11   23.19    1.40
 -13   3 -11   21.95    1.52
  13   3  11   24.85    1.85
 -13   3 -11   25.50    2.75
  15  -3  11    6.97    1.18
 -15  -3 -11    6.73    0.98
 -15  -3 -11    8.92    1.08
  15   3  11    6.04    1.13
 -15   3 -11    9.12    1.27
 -15   3 -11    9.76    3.59
 -17  -3 -11    9.44    1.34
 -17  -3 -11   12.95    1.65
  17  -3  11   18.68    2.07
 -17   3 -11   11.87    1.57
  17   3  11   12.93    1.91
 -18  -4  11   47.81    3.57
 -18  -4  11   43.00    2.56
 -18   4  11   33.31    3.81
 -18   4  11   38.29    2.36
 -16  -4  11  145.64    5.30
 -16  -4  11  137.27    6.21
 -16   4  11  140.50    6.40
 -14  -4  11   35.66    1.92
 -14  -4  11   32.34    2.61
 -14   4  11   30.17    2.72
  14   4 -11   31.96    1.50
 -12  -4  11   31.38    2.34
 -12   4  11   30.96    2.36
  12   4 -11   31.65    1.43
 -10  -4  11  107.30    4.66
 -10  -4  11  111.52    4.41
 -10   4  11  115.58    4.67
  10   4 -11  111.27    3.76
 -10   4  11  116.09    4.40
  -8  -4  11   86.79    3.53
  -8  -4  11   83.26    3.76
  -8   4  11   87.14    3.00
  -8   4  11   85.59    3.49
  -8   4  11   88.45    3.68
   8   4 -11   84.81    2.98
   6  -4 -11   54.89    1.89
  -6  -4  11   54.20    2.47
  -6  -4  11   55.27    2.71
  -6   4  11   52.77    2.05
   6   4 -11   53.90    2.47
   6   4 -11   53.69    2.05
  -6   4  11   55.52    2.46
  -6   4  11   55.64    2.52
   4  -4 -11   19.54    0.86
  -4  -4  11   21.54    1.51
  -4  -4  11   18.22    0.80
  -4  -4  11   20.07    1.35
   4   4 -11   18.28    1.01
  -4   4  11   19.49    1.08
   4   4 -11   19.99    1.48
  -4   4  11   19.76    1.29
  -4   4  11   19.19    1.31
  -2  -4  11   60.31    1.92
   2  -4 -11   59.24    2.06
  -2  -4  11   60.02    2.57
  -2  -4  11   61.07    2.74
  -2   4  11   57.33    2.52
  -2   4  11   59.64    2.39
   2   4 -11   60.45    1.91
  -2   4  11   59.18    2.33
   2   4 -11   58.37    2.22
   2   4 -11   62.03    2.64
   0  -4  11  147.57    5.25
   0  -4  11  145.52    5.13
   0  -4 -11  143.22    4.63
   0  -4  11  147.79    4.38
   0   4  11  141.96    5.11
   0   4 -11  144.87    4.80
   0   4  11  145.93    4.95
   0   4 -11  148.22    5.18
  -2  -4 -11  134.72    4.21
   2  -4  11  127.65    4.72
   2  -4  11  135.60    4.85
  -2  -4 -11  133.05    4.30
  -2  -4 -11  133.77    4.11
   2   4  11  128.53    4.72
   2   4  11  125.18    4.33
  -2   4 -11  138.61    4.89
   2   4  11  137.99    4.71
  -2   4 -11  131.15    4.44
   4  -4  11    9.81    1.02
  -4  -4 -11    9.82    0.65
  -4  -4 -11    9.55    0.69
   4  -4  11    9.92    1.03
   4   4  11   10.49    1.01
  -4   4 -11    8.94    1.32
  -4   4 -11    9.01    0.77
  -6  -4 -11  137.61    4.55
  -6  -4 -11  137.65    4.49
   6  -4  11  140.02    4.99
   6   4  11  138.52    4.98
  -6   4 -11  135.56    4.70
  -6   4 -11  139.09    5.18
  -8  -4 -11  121.02    4.11
   8  -4  11  123.47    4.58
  -8  -4 -11  122.78    4.15
  -8   4 -11  118.16    4.27
   8   4  11  124.94    4.60
  -8   4 -11  121.91    4.81
 -10  -4 -11   47.13    1.99
  10  -4  11   47.43    2.38
 -10  -4 -11   47.26    2.04
 -10   4 -11   48.09    2.15
 -10   4 -11   46.15    2.82
  10   4  11   46.38    2.37
 -12  -4 -11   16.02    1.51
  12  -4  11   14.37    1.55
 -12  -4 -11   15.30    1.11
 -12   4 -11   15.34    1.26
 -12   4 -11   18.52    2.28
  12   4  11   12.95    1.45
 -14  -4 -11   59.49    2.54
  14  -4  11   62.76    3.05
 -14  -4 -11   58.92    2.63
 -14   4 -11   58.21    2.77
 -14   4 -11   62.43    3.93
  14   4  11   61.51    3.00
 -16  -4 -11   33.81    2.16
 -16  -4 -11   35.13    1.95
  16  -4  11   41.15    2.59
 -16   4 -11   45.34    3.89
 -16   4 -11   38.50    2.22
  16   4  11   36.69    2.51
 -19  -5  11   21.70    3.44
 -19  -5  11   25.62    2.23
 -19   5  11   15.24    2.72
 -17  -5  11   11.87    1.91
 -17  -5  11   14.80    1.74
 -17   5  11    9.81    2.09
 -15  -5  11   48.36    2.46
 -15  -5  11   44.26    3.21
  15   5 -11   48.24    2.03
 -15   5  11   41.12    3.35
 -13  -5  11  190.96    7.47
 -13   5  11  191.74    7.56
  13   5 -11  203.85    6.32
 -11  -5  11   13.79    1.77
 -11   5  11   11.89    1.38
  11   5 -11   14.52    1.01
 -11   5  11   17.97    1.83
  -9  -5  11    4.35    0.90
  -9  -5  11    3.98    1.03
  -9   5  11    5.20    0.65
   9   5 -11    4.43    0.67
  -9   5  11    3.44    0.73
  -9   5  11    3.44    0.87
  -7  -5  11   38.49    2.10
  -7  -5  11   39.65    2.35
   7  -5 -11   43.09    1.54
   7   5 -11   39.81    2.21
  -7   5  11   41.28    2.18
  -7   5  11   40.46    1.61
  -7   5  11   39.82    2.05
   7   5 -11   39.14    1.69
   5  -5 -11  175.19    5.45
  -5  -5  11  175.71    6.04
  -5  -5  11  169.59    6.28
  -5   5  11  173.55    6.01
   5   5 -11  173.39    5.65
  -5   5  11  173.48    5.57
   5   5 -11  175.81    6.05
  -5   5  11  174.60    5.97
   3  -5 -11   47.01    1.72
  -3  -5  11   46.60    2.22
  -3  -5  11   47.18    1.62
  -3  -5  11   47.75    2.39
   3   5 -11   47.01    2.32
   3   5 -11   47.34    1.90
  -3   5  11   46.19    2.16
  -3   5  11   47.36    2.04
  -3   5  11   46.65    1.90
   1  -5 -11   13.64    0.76
  -1  -5  11   14.56    1.17
  -1  -5  11   13.44    0.58
  -1  -5  11   15.12    1.27
   1   5 -11   13.01    1.35
  -1   5  11   13.57    1.01
  -1   5  11   13.50    1.08
  -1   5  11   14.03    1.00
   1   5 -11   13.30    0.87
   1  -5  11   14.53    0.57
   1  -5  11   13.93    1.24
  -1  -5 -11   14.35    0.80
   1  -5  11   13.50    1.14
   1   5  11   14.24    0.86
   1   5  11   14.18    1.10
  -1   5 -11   14.85    0.93
   1   5  11   14.87    1.17
  -3  -5 -11  220.03    6.94
   3  -5  11  218.68    7.48
  -3  -5 -11  224.58    6.70
   3  -5  11  221.45    7.38
  -3   5 -11  214.43    7.52
  -3   5 -11  224.32    7.12
   3   5  11  222.02    7.38
   5  -5  11  123.15    4.60
  -5  -5 -11  123.35    4.11
  -5  -5 -11  124.56    3.96
   5  -5  11  124.77    4.52
  -5   5 -11  123.86    4.72
  -5   5 -11  120.57    4.25
   5   5  11  119.47    4.48
  -7  -5 -11    1.62    0.41
   7  -5  11    0.68    0.58
  -7  -5 -11    1.86    0.40
  -7   5 -11    1.34    0.84
   7   5  11    2.13    0.62
  -7   5 -11    1.01    0.41
  -9  -5 -11    6.63    0.83
  -9  -5 -11    6.35    0.74
   9  -5  11    8.00    1.18
  -9   5 -11    9.40    1.40
  -9   5 -11    6.84    0.85
   9   5  11    7.74    1.12
  11  -5  11   75.63    3.65
 -11  -5 -11   74.64    2.88
 -11  -5 -11   76.84    2.92
 -11   5 -11   78.95    3.88
 -11   5 -11   72.84    3.04
 -13  -5 -11  141.21    4.97
 -13  -5 -11  147.75    5.04
  13  -5  11  144.77    5.45
 -13   5 -11  142.73    5.17
 -13   5 -11  152.48    6.12
  13   5  11  135.54    5.39
  15  -5  11    1.28    0.95
 -15  -5 -11    0.72    0.76
 -15  -5 -11    1.03    0.57
 -15   5 -11   -0.20    0.68
 -15   5 -11   -0.35    1.73
  15   5  11   -0.86    0.87
 -17  -5 -11    3.83    1.02
 -17  -5 -11    4.54    0.84
  17  -5  11    2.09    1.25
 -17   5 -11    9.17    2.28
 -17   5 -11    6.67    1.07
  17   5  11    3.86    1.14
 -18  -6  11   58.27    3.09
 -18  -6  11   58.66    4.09
 -18   6  11   55.02    4.56
 -16  -6  11   34.23    2.23
 -16  -6  11   34.51    3.13
  16   6 -11   35.38    1.96
 -16   6  11   36.40    3.47
 -14  -6  11   15.57    2.22
 -14   6  11   17.53    2.50
  14   6 -11   14.55    1.26
 -12  -6  11    0.46    0.95
  12   6 -11    0.31    0.49
 -12   6  11    1.82    1.04
 -12   6  11   -0.56    0.70
 -10  -6  11   95.33    3.96
 -10  -6  11   89.12    4.22
 -10   6  11   95.61    3.87
 -10   6  11  100.02    4.22
  10   6 -11   96.49    3.42
  -8  -6  11  179.21    6.32
  -8  -6  11  182.25    6.70
   8   6 -11  180.12    5.87
  -8   6  11  175.26    6.40
  -8   6  11  178.73    6.27
   6  -6 -11   80.83    2.69
  -6  -6  11   76.76    3.53
  -6  -6  11   83.65    3.28
  -6   6  11   74.38    3.16
   6   6 -11   80.04    3.40
   6   6 -11   77.68    2.87
  -6   6  11   76.50    3.17
  -6   6  11   77.98    2.70
   4  -6 -11   59.98    2.14
  -4  -6  11   60.40    2.07
  -4  -6  11   61.22    2.67
  -4  -6  11   62.29    2.92
  -4   6  11   60.89    2.61
  -4   6  11   59.22    2.47
   4   6 -11   60.26    2.33
   4   6 -11   58.08    2.77
  -4   6  11   59.84    2.22
  -2  -6  11  192.68    6.80
  -2  -6  11  201.26    6.57
   2  -6 -11  194.55    6.05
  -2   6  11  176.54    6.31
   2   6 -11  193.94    6.26
  -2   6  11  195.88    6.53
  -2   6  11  190.84    6.22
   2   6 -11  194.61    6.72
   0  -6 -11  134.60    4.35
   0  -6  11  132.86    4.79
   0  -6  11  132.66    4.99
   0  -6  11  130.62    4.12
   0   6  11  131.28    4.76
   0   6 -11  139.10    5.00
   0   6 -11  133.87    4.53
   0   6  11  134.07    4.32
   0   6  11  133.88    4.61
   2  -6  11   12.40    1.16
   2  -6  11   14.08    0.60
   2  -6  11   13.95    1.22
  -2  -6 -11   13.68    0.84
   2   6  11   15.70    1.18
  -2   6 -11   14.22    0.96
  -2   6 -11   13.29    1.43
  -4  -6 -11   13.72    0.67
  -4  -6 -11   12.31    0.83
   4  -6  11   14.66    1.28
   4  -6  11   12.65    1.21
  -4   6 -11   13.07    1.47
  -4   6 -11   12.39    0.93
   4   6  11   13.36    1.13
  -6  -6 -11   66.13    2.50
  -6  -6 -11   68.97    2.35
   6  -6  11   66.26    2.87
   6   6  11   66.92    2.85
  -6   6 -11   64.53    2.63
  -6   6 -11   67.57    3.19
  -8  -6 -11  142.21    4.62
  -8  -6 -11  140.78    4.73
   8  -6  11  143.50    5.15
  -8   6 -11  142.25    5.49
   8   6  11  134.94    5.11
  -8   6 -11  136.96    4.88
 -10  -6 -11   60.67    2.39
  10  -6  11   62.43    2.84
 -10  -6 -11   51.70    2.64
 -10   6 -11   62.56    3.30
  10   6  11   59.59    2.79
 -10   6 -11   62.56    2.64
  12  -6  11    3.19    0.95
 -12  -6 -11    4.44    0.68
  12   6  11    2.96    0.85
 -12   6 -11    1.71    1.29
 -12   6 -11    4.13    0.74
 -14  -6 -11  118.18    4.32
 -14  -6 -11  112.59    4.22
  14  -6  11  114.14    4.67
  14   6  11  120.48    4.70
 -14   6 -11  118.77    4.47
 -14   6 -11  117.05    5.47
  16  -6  11   88.08    3.98
 -16  -6 -11   77.68    3.32
 -16  -6 -11   81.90    3.53
 -16   6 -11   84.61    3.61
  16   6  11   86.84    3.92
 -16   6 -11   85.83    5.15
 -17  -7  11    1.74    1.67
 -17   7  11   -0.91    1.87
 -15  -7  11   21.17    2.60
  15   7 -11   22.32    1.58
 -15   7  11   14.60    2.17
 -13  -7  11   42.17    3.00
 -13   7  11   43.60    2.52
 -11  -7  11   94.74    4.03
 -11  -7  11   93.71    4.38
 -11   7  11   94.35    4.31
 -11   7  11   94.20    3.89
  11   7 -11   94.99    3.48
  -9  -7  11    0.41    0.82
  -9  -7  11    0.19    0.69
  -9   7  11   -0.35    0.59
   9   7 -11   -0.06    0.44
  -9   7  11    0.54    0.78
  -7  -7  11   22.29    1.60
  -7  -7  11   22.61    1.86
   7  -7 -11   23.44    1.13
   7   7 -11   24.42    1.97
  -7   7  11   21.63    1.61
  -7   7  11   21.97    1.53
  -7   7  11   22.28    1.02
   7   7 -11   23.32    1.31
  -5  -7  11   99.59    4.22
  -5  -7  11   97.78    3.32
   5  -7 -11  103.53    3.39
  -5  -7  11  102.34    3.91
  -5   7  11   99.56    3.35
  -5   7  11  104.26    3.87
  -5   7  11   99.93    3.74
   5   7 -11   99.46    3.59
  -3  -7  11   92.35    3.50
  -3  -7  11   86.18    3.76
   3  -7 -11   88.30    3.01
  -3  -7  11   89.00    2.90
  -3   7  11   87.87    3.42
   3   7 -11   91.33    3.72
   3   7 -11   88.69    3.22
  -3   7  11   82.01    3.05
   1  -7 -11   11.24    0.76
  -1  -7  11   11.53    0.62
  -1  -7  11   11.67    1.17
  -1  -7  11   12.44    1.29
  -1   7  11   11.26    0.97
   1   7 -11   13.95    1.49
  -1   7  11   10.93    0.75
  -1   7  11    9.93    1.04
   1   7 -11   11.21    0.88
   1  -7  11   46.93    2.19
   1  -7  11   40.49    1.85
   1  -7  11   48.31    2.42
  -1  -7 -11   47.41    1.83
   1   7  11   44.86    2.13
  -1   7 -11   48.55    2.00
  -1   7 -11   49.37    2.50
  -3  -7 -11   97.56    3.41
  -3  -7 -11  100.61    3.09
   3  -7  11   95.94    3.96
   3  -7  11   99.34    3.79
   3  -7  11  100.53    3.15
  -3   7 -11  104.30    4.34
   3   7  11   96.96    3.76
  -3   7 -11  100.06    3.60
   5  -7  11   67.32    2.88
  -5  -7 -11   68.14    2.53
  -5  -7 -11   66.37    2.30
  -5   7 -11   64.91    3.20
  -5   7 -11   72.06    2.72
   5   7  11   68.76    2.87
  -7  -7 -11    2.65    0.50
   7  -7  11    2.67    0.74
  -7  -7 -11    3.19    0.48
   7   7  11    3.32    0.72
  -7   7 -11    1.36    0.48
  -7   7 -11    1.79    0.87
  -9  -7 -11   14.01    1.36
  -9  -7 -11   15.54    1.07
   9  -7  11   14.63    1.43
   9   7  11   13.47    1.35
  -9   7 -11   12.72    1.54
  -9   7 -11   12.47    1.90
 -11  -7 -11   46.32    2.12
 -11  -7 -11   49.23    2.16
  11  -7  11   53.53    2.65
 -11   7 -11   52.35    3.27
  11   7  11   46.08    2.50
 -11   7 -11   46.56    2.26
  13  -7  11   47.11    2.61
 -13  -7 -11   44.83    2.17
 -13  -7 -11   48.32    2.30
 -13   7 -11   50.97    3.60
  13   7  11   47.22    2.58
 -13   7 -11   45.40    2.36
  15  -7  11   22.09    2.25
 -15  -7 -11   24.22    1.91
 -15  -7 -11   22.51    1.61
 -15   7 -11   27.46    3.40
  15   7  11   22.68    2.09
 -15   7 -11   20.95    1.80
 -16  -8  11   22.40    3.07
 -16   8  11   29.81    2.53
 -16   8  11   27.45    3.56
  16   8 -11   25.24    1.93
 -14  -8  11   16.86    2.17
 -14  -8  11   15.26    2.07
 -14   8  11   18.15    2.79
  14   8 -11   16.78    1.48
 -14   8  11   14.21    1.93
 -12  -8  11    1.70    1.07
 -12  -8  11    1.03    1.03
 -12   8  11    0.24    1.16
 -12   8  11    2.08    1.54
  12   8 -11    0.83    0.60
 -10  -8  11   57.97    3.29
 -10  -8  11   61.12    2.95
 -10   8  11   57.54    2.79
 -10   8  11   59.62    3.18
  10   8 -11   58.58    2.50
   8  -8 -11  112.76    3.70
  -8  -8  11  106.44    4.62
  -8  -8  11  110.34    4.25
   8   8 -11  108.38    3.91
  -8   8  11  108.31    4.30
  -8   8  11  101.08    4.10
  -6  -8  11   12.39    1.31
   6  -8 -11   13.03    0.86
  -6  -8  11   10.48    1.49
  -6  -8  11   12.33    0.79
   6   8 -11   13.89    1.75
  -6   8  11   11.76    1.17
  -6   8  11   11.37    1.23
   6   8 -11   10.05    0.98
  -6   8  11   11.46    0.71
   4  -8 -11    2.65    0.44
  -4  -8  11    1.28    0.68
  -4  -8  11    1.88    0.35
  -4  -8  11    2.29    0.72
   4   8 -11    2.72    0.97
  -4   8  11    2.46    0.60
   4   8 -11    2.17    0.49
  -4   8  11    1.31    0.58
  -4   8  11    1.44    0.70
  -2  -8  11   73.50    2.46
   2  -8 -11   70.73    2.58
  -2  -8  11   70.98    3.00
  -2  -8  11   66.39    3.24
  -2   8  11   73.76    2.96
  -2   8  11   72.52    2.52
   2   8 -11   78.49    3.35
   2   8 -11   73.31    2.81
  -2   8  11   72.87    2.69
   0  -8  11   87.26    3.39
   0  -8 -11   86.52    2.98
   0  -8 -11   82.68    2.99
   0  -8  11   85.49    3.68
   0  -8  11   88.33    2.83
   0   8 -11   86.21    3.71
   0   8  11   86.14    3.35
   0   8 -11   84.78    3.21
  -2  -8 -11   17.44    0.82
   2  -8  11   17.38    1.36
  -2  -8 -11   17.63    1.02
   2  -8  11   18.24    0.82
   2  -8  11   16.24    1.46
  -2   8 -11   19.57    1.85
  -2   8 -11   17.33    1.14
   2   8  11   17.63    1.31
   4  -8  11    1.09    0.55
   4  -8  11    0.26    0.25
   4  -8  11    1.08    0.60
  -4  -8 -11    0.72    0.36
  -4  -8 -11    0.65    0.47
  -4   8 -11   -0.22    0.36
  -4   8 -11    0.89    0.86
   4   8  11   -0.03    0.48
  -6  -8 -11   60.85    2.41
   6  -8  11   62.22    2.74
  -6   8 -11   61.16    2.56
   6   8  11   61.14    2.72
  -6   8 -11   66.31    3.22
  -8  -8 -11  114.59    4.75
   8  -8  11  131.83    4.68
  -8  -8 -11  130.55    4.09
  -8   8 -11  123.64    5.13
  -8   8 -11  123.01    4.65
   8   8  11  124.55    4.65
  10  -8  11    2.27    0.91
 -10  -8 -11    3.34    0.68
 -10   8 -11    4.32    1.36
 -10   8 -11    4.02    0.73
  12  -8  11   12.84    1.74
 -12  -8 -11   15.91    1.45
 -12  -8 -11   14.11    1.22
 -12   8 -11   11.93    1.34
  12   8  11   14.50    1.61
 -12   8 -11   14.99    2.18
  14  -8  11   21.31    2.16
 -14  -8 -11   14.97    1.39
 -14  -8 -11   18.19    1.74
  14   8  11   21.13    2.07
 -14   8 -11   17.29    2.33
 -14   8 -11   16.42    1.64
 -15  -9  11    5.25    1.62
 -15  -9  11    4.62    1.75
 -15   9  11    4.20    1.99
 -15   9  11    3.22    1.30
  15   9 -11    3.88    1.01
 -13  -9  11   18.83    2.56
 -13  -9  11   22.37    2.38
 -13   9  11   21.28    2.06
 -13   9  11   27.36    2.90
  13   9 -11   22.25    1.67
 -11  -9  11   10.88    2.20
 -11  -9  11    9.84    1.50
  11   9 -11   10.82    1.26
 -11   9  11    9.09    1.52
 -11   9  11   11.85    1.54
  -9  -9  11   11.04    0.92
  -9  -9  11   10.84    1.54
  -9  -9  11   11.37    1.61
   9   9 -11   10.52    1.50
  -9   9  11   13.71    1.38
  -9   9  11   10.63    1.68
  -7  -9  11    9.48    1.21
   7  -9 -11    9.93    0.91
  -7  -9  11   10.88    1.69
  -7  -9  11   13.54    0.89
   7   9 -11   13.51    2.70
   7   9 -11   10.41    1.08
  -7   9  11   12.62    1.44
  -7   9  11   11.88    1.52
  -5  -9  11    1.69    0.80
   5  -9 -11    1.47    0.41
  -5  -9  11    2.67    0.83
  -5  -9  11    1.45    0.38
  -5   9  11    2.34    0.63
  -5   9  11    1.89    0.66
   5   9 -11    1.28    0.49
  -5   9  11    1.72    0.38
   5   9 -11    2.00    1.07
   3  -9 -11   16.01    0.98
  -3  -9  11   17.34    1.47
  -3  -9  11   15.20    0.87
  -3  -9  11   14.27    1.57
   3   9 -11   17.09    1.15
   3   9 -11   18.12    1.82
  -3   9  11   13.96    1.26
  -1  -9  11   23.32    1.00
   1  -9 -11   20.54    1.13
   1  -9 -11   20.78    1.01
  -1  -9  11   20.04    1.68
  -1  -9  11   20.31    1.49
   1   9 -11   21.34    1.30
  -1   9  11   20.39    1.40
   1   9 -11   21.32    1.96
   1  -9  11   16.39    1.32
   1  -9  11   14.74    0.78
  -1  -9 -11   14.53    0.95
   1  -9  11   13.00    1.44
  -1  -9 -11   13.99    0.82
   1   9  11   14.19    1.20
  -1   9 -11   15.20    1.10
  -1   9 -11   14.24    1.72
  -3  -9 -11   24.90    1.30
   3  -9  11   27.84    1.68
   3  -9  11   27.36    1.10
  -3  -9 -11   23.98    1.10
   3  -9  11   26.17    1.83
  -3   9 -11   26.29    2.09
  -3   9 -11   25.00    1.45
   3   9  11   25.40    1.57
  -5  -9 -11   27.67    1.39
   5  -9  11   26.24    1.73
   5  -9  11   28.70    1.16
  -5   9 -11   25.91    1.53
   5   9  11   26.04    1.66
  -5   9 -11   25.17    2.12
  -7  -9 -11    0.51    0.43
   7  -9  11   -0.19    0.69
  -7   9 -11   -0.48    0.97
   7   9  11    1.12    0.64
  -7   9 -11    0.50    0.44
  -9  -9 -11   40.29    1.91
   9  -9  11   41.79    2.35
  -9   9 -11   43.05    2.96
   9   9  11   43.19    2.27
  -9   9 -11   38.51    2.05
  11  -9  11    2.39    1.04
 -11  -9 -11    2.21    0.62
  11   9  11    2.61    0.92
 -11   9 -11    2.88    0.71
 -11   9 -11    3.22    1.43
  13  -9  11    1.82    1.13
 -13  -9 -11    1.38    0.64
  13   9  11   -1.27    0.94
 -13   9 -11    1.03    1.64
 -13   9 -11   -0.50    0.67
  15  -9  11   15.46    2.26
 -15  -9 -11   10.28    1.42
  15   9  11   14.66    2.00
 -15   9 -11   12.03    2.11
 -15   9 -11   12.21    1.72
 -14 -10  11    0.20    1.46
 -14 -10  11    2.16    1.53
 -14  10  11    0.62    1.20
 -14  10  11    3.40    1.77
  14  10 -11    1.32    0.91
 -12 -10  11    1.65    1.33
 -12 -10  11    2.50    1.28
  12  10 -11    0.77    0.74
 -12  10  11    2.96    0.96
 -12  10  11   -0.19    1.88
 -10 -10  11    0.10    1.06
 -10 -10  11   -1.59    0.95
 -10 -10  11   -0.18    0.62
 -10  10  11   -0.66    1.08
 -10  10  11    1.70    0.80
  10  10 -11    0.49    0.62
  -8 -10  11   10.91    1.65
  -8 -10  11   13.78    0.99
  -8 -10  11   14.07    1.93
   8  10 -11   13.00    1.26
  -8  10  11   11.54    1.61
  -8  10  11   12.62    1.41
  -6 -10  11    2.62    0.91
  -6 -10  11    2.52    0.48
  -6 -10  11    3.85    1.78
   6 -10 -11    1.68    0.49
  -6  10  11    2.19    0.69
   6  10 -11    3.42    1.21
  -4 -10  11    8.28    1.08
   4 -10 -11    6.48    0.77
  -4 -10  11    6.27    1.10
  -4 -10  11    7.97    0.71
  -4  10  11    6.91    1.09
  -4  10  11    7.32    0.71
   4  10 -11    7.58    0.98
   4  10 -11    9.04    1.44
   2 -10 -11   13.50    0.89
  -2 -10  11   13.53    0.83
  -2 -10  11   12.90    1.39
  -2 -10  11   13.02    1.55
   2 -10 -11   12.41    0.95
  -2  10  11   11.06    1.19
   2  10 -11   13.35    1.84
   2  10 -11   11.84    1.09
   0 -10 -11   -0.20    0.38
   0 -10  11   -0.39    0.62
   0 -10  11   -0.50    0.64
   0 -10 -11    0.09    0.36
   0 -10  11    0.49    0.33
   0  10 -11    0.81    0.44
   0  10  11   -0.13    0.55
   0  10 -11   -0.59    0.92
  -2 -10 -11    4.50    0.63
   2 -10  11    5.70    0.93
  -2 -10 -11    3.43    0.55
   2 -10  11    4.05    0.54
   2 -10  11    2.86    0.85
  -2  10 -11    5.56    0.83
   2  10  11    4.41    0.74
  -2  10 -11    4.99    1.19
   4 -10  11    4.83    0.59
  -4 -10 -11    4.84    0.71
   4 -10  11    3.93    0.90
  -4  10 -11    3.66    1.13
   4  10  11    3.54    0.73
   6 -10  11    4.30    0.91
  -6 -10 -11    2.03    0.54
   6 -10  11    2.18    0.43
  -6  10 -11    2.55    0.61
  -6  10 -11    1.90    1.12
   6  10  11    3.85    0.79
  -8 -10 -11    3.45    0.60
   8 -10  11    2.67    0.95
  -8  10 -11    2.81    0.71
   8  10  11    3.64    0.87
 -10 -10 -11    1.98    0.67
  10 -10  11    2.12    1.01
 -10  10 -11    2.02    1.31
  10  10  11    1.75    0.88
 -10  10 -11    1.90    0.70
  12 -10  11    6.47    1.33
 -12 -10 -11    3.42    0.77
 -12  10 -11    2.88    1.67
 -12  10 -11    3.91    0.86
  12  10  11    1.80    1.05
 -14 -10 -11    2.04    0.84
  14 -10  11    2.24    1.70
 -14  10 -11    4.53    1.04
  14  10  11    2.14    1.18
 -14  10 -11    3.60    1.89
 -13 -11  11    3.78    0.85
 -13 -11  11    5.22    1.72
 -13 -11  11    3.56    1.69
  13  11 -11    5.41    1.05
 -11 -11  11   20.02    2.56
 -11 -11  11   20.28    1.43
 -11 -11  11   21.77    2.38
  11  11 -11   15.32    1.64
  -9 -11  11    0.90    0.55
  -9 -11  11    1.09    1.15
  -9 -11  11    1.35    1.15
   9  11 -11    1.90    0.73
  -9  11  11    1.14    0.88
  -7 -11  11   17.74    1.90
  -7 -11  11   13.62    1.98
  -7 -11  11   12.10    1.02
   7 -11 -11   14.42    1.19
   7  11 -11   16.32    2.12
   7  11 -11   14.58    1.36
  -7  11  11   16.70    1.46
  -5 -11  11    3.14    0.97
   5 -11 -11    2.63    0.55
  -5 -11  11    3.38    0.51
  -5 -11  11    4.40    1.05
  -5  11  11    2.29    0.74
   5  11 -11    3.81    1.28
   5  11 -11    2.88    0.72
  -3 -11  11    5.30    0.99
  -3 -11  11    4.78    1.11
  -3 -11  11    5.14    0.69
   3 -11 -11    5.09    0.68
   3 -11 -11    6.79    0.85
   3  11 -11    4.95    0.80
   3  11 -11    5.66    1.40
  -3  11  11    6.47    0.88
  -1 -11  11    4.51    1.03
  -1 -11  11    4.71    0.66
   1 -11 -11    5.01    0.65
   1 -11 -11    4.12    0.60
  -1 -11  11    4.40    0.93
   1  11 -11    4.61    1.29
  -1  11  11    4.13    0.79
   1  11 -11    3.27    0.65
   1 -11  11   28.18    2.07
  -1 -11 -11   27.81    1.36
  -1 -11 -11   27.79    1.75
   1 -11  11   26.59    1.80
   1 -11  11   28.60    1.28
  -1  11 -11   29.85    2.38
   1  11  11   28.22    1.65
  -1  11 -11   27.05    1.61
   3 -11  11    2.36    0.87
  -3 -11 -11    1.53    0.51
   3 -11  11    1.60    0.42
   3 -11  11    1.06    0.83
  -3  11 -11    1.27    0.52
  -3  11 -11    2.42    1.20
   3  11  11    0.68    0.65
   5 -11  11   29.21    1.35
  -5 -11 -11   28.65    1.54
   5 -11  11   32.44    1.99
   5  11  11   31.57    1.79
  -5  11 -11   28.37    2.55
  -5  11 -11   29.21    1.71
   7 -11  11   -0.31    0.90
  -7 -11 -11   -0.44    0.47
   7  11  11   -0.34    0.79
  -7  11 -11   -0.20    1.14
  -7  11 -11    0.12    0.54
   9 -11  11   32.67    2.81
  -9 -11 -11   33.89    1.80
  -9  11 -11   32.51    1.96
  -9  11 -11   30.66    2.87
   9  11  11   34.55    2.12
 -11 -11 -11   10.77    1.23
 -11  11 -11    8.68    1.92
  11  11  11   13.07    1.75
 -11  11 -11    9.82    1.47
 -13 -11 -11    0.01    0.70
  13  11  11   -0.38    1.69
 -13  11 -11   -2.93    1.76
 -13  11 -11   -0.27    0.85
 -12 -12  11    1.47    0.74
 -12 -12  11    0.26    1.55
  12  12 -11    0.83    0.92
 -10 -12  11   50.79    2.26
 -10 -12  11   48.07    3.38
  10  12 -11   49.52    2.57
  -8 -12  11    5.46    1.29
  -8 -12  11    2.58    0.62
   8  12 -11    2.67    0.79
   6 -12 -11   -0.90    0.54
  -6 -12  11    0.97    0.51
  -6 -12  11    1.11    1.04
  -6 -12  11    0.61    1.20
   6  12 -11    0.37    0.57
   6  12 -11    1.29    1.48
  -4 -12  11   11.28    1.56
  -4 -12  11   10.28    1.36
   4 -12 -11    9.05    1.02
   4 -12 -11    7.98    0.87
  -4 -12  11    9.43    0.89
  -4  12  11    9.30    1.26
   4  12 -11   10.57    1.22
   4  12 -11   11.22    1.83
  -2 -12  11    3.12    1.01
  -2 -12  11    4.26    0.66
   2 -12 -11    3.76    0.65
   2 -12 -11    3.68    0.65
  -2 -12  11    4.22    1.08
   2  12 -11    2.90    0.70
   2  12 -11    2.12    1.39
  -2  12  11    3.90    0.77
   0 -12  11   65.79    3.29
   0 -12  11   69.74    2.50
   0 -12 -11   63.78    2.64
   0 -12  11   65.12    3.34
   0 -12 -11   66.57    2.52
   0  12 -11   75.87    3.80
   0  12  11   66.51    2.75
   0  12 -11   65.95    2.88
   2 -12  11   10.66    1.65
  -2 -12 -11   10.57    1.04
   2 -12  11   13.97    0.93
   2  12  11   10.32    1.23
  -2  12 -11   12.70    1.84
  -2  12 -11   12.51    1.21
   4 -12  11    0.58    0.44
  -4 -12 -11    0.47    0.49
  -4  12 -11   -2.10    1.77
   4  12  11    1.60    0.72
  -4  12 -11    1.00    0.59
  -6 -12 -11   20.73    1.40
  -6  12 -11   24.17    2.55
  -6  12 -11   20.66    1.56
   6  12  11   16.83    1.82
  -8 -12 -11   28.62    1.68
  -8  12 -11   28.53    2.83
  -8  12 -11   27.49    1.85
 -10 -12 -11   -0.30    0.62
 -10  12 -11    0.55    0.75
 -10  12 -11   -1.11    1.40
 -12 -12 -11   -0.03    0.79
 -12  12 -11    0.19    0.87
 -12  12 -11    0.32    1.65
 -11 -13  11   50.24    4.85
 -11 -13  11   52.08    2.35
  11  13 -11   46.42    2.70
  -9 -13  11   24.45    2.73
  -9 -13  11   23.00    1.51
   9  13 -11   20.60    1.79
  -7 -13  11   42.55    1.89
   7 -13 -11   35.45    2.00
  -7 -13  11   38.43    2.95
   7  13 -11   33.92    2.16
  -5 -13  11   93.00    3.29
  -5 -13  11   86.21    4.28
   5 -13 -11   88.11    3.39
   5  13 -11   85.19    3.63
   5  13 -11   93.55    4.75
  -3 -13  11   61.53    2.75
  -3 -13  11   59.75    3.27
   3 -13 -11   61.79    2.48
   3 -13 -11   61.10    2.55
  -3  13  11   58.56    2.14
   3  13 -11   57.55    2.88
   3  13 -11   63.88    3.88
  -1 -13  11    5.85    1.12
   1 -13 -11    4.54    0.73
   1 -13 -11    4.75    0.74
  -1 -13  11    6.41    0.89
   1  13 -11    4.88    2.11
   1  13 -11    5.96    0.93
   1 -13  11   30.52    1.50
   1 -13  11   27.27    2.27
  -1 -13 -11   28.56    1.63
  -1  13 -11   29.55    1.80
  -1  13 -11   34.23    2.91
   3 -13  11   29.64    1.45
  -3 -13 -11   28.36    1.61
  -3  13 -11   25.05    2.80
  -3  13 -11   27.81    1.80
  -5 -13 -11   20.40    1.41
  -5  13 -11   18.72    2.62
  -5  13 -11   18.48    1.58
  -7 -13 -11   15.45    1.33
  -7  13 -11   13.74    2.02
  -7  13 -11   16.20    1.57
  -9 -13 -11   12.90    1.35
  -9  13 -11   14.06    1.59
  -9  13 -11   14.96    2.09
 -10 -14  11   15.73    2.29
 -10 -14  11   14.71    1.48
  10  14 -11   16.92    1.92
  -8 -14  11   44.56    2.11
  -8 -14  11   37.67    3.25
   8  14 -11   41.51    2.46
  -6 -14  11   28.76    2.81
   6 -14 -11   30.46    1.86
  -6 -14  11   27.66    1.65
   6  14 -11   29.24    2.02
  -4 -14  11   14.25    2.18
  -4 -14  11   12.12    1.20
   4 -14 -11   12.93    1.37
   4 -14 -11   11.03    1.28
   4  14 -11   10.58    1.47
   4  14 -11    9.75    2.05
  -2 -14  11   43.27    2.94
  -2 -14  11   45.05    1.98
   2 -14 -11   44.00    2.14
   2 -14 -11   42.72    2.10
   2  14 -11   43.75    3.57
   2  14 -11   43.36    2.34
  -2  14  11   39.58    1.73
   0 -14 -11   40.10    2.05
   0 -14  11   42.25    2.83
   0 -14  11   44.35    1.94
   0  14 -11   42.62    2.29
   0  14 -11   43.52    3.47
   2 -14  11   30.37    1.55
  -2 -14 -11   27.28    1.69
  -2  14 -11   24.82    3.00
  -2  14 -11   29.80    1.93
  -4 -14 -11    8.87    1.16
  -4  14 -11    8.33    1.83
  -4  14 -11    7.25    1.06
  -6 -14 -11   40.24    2.07
  -6  14 -11   42.65    3.42
  -6  14 -11   38.05    2.31
  -8 -14 -11   11.38    1.43
  -8  14 -11   16.16    1.63
  -8  14 -11   15.73    2.34
  -7 -15  11   24.74    3.09
  -7 -15  11   30.34    1.78
   7  15 -11   24.49    2.12
   5 -15 -11  132.31    4.79
  -5 -15  11  140.93    4.73
   5 -15 -11  132.56    4.82
  -5 -15  11  129.77    5.73
   5  15 -11  128.59    5.09
  -3 -15  11   31.21    2.82
   3 -15 -11   33.40    1.91
  -3 -15  11   30.88    1.77
   3  15 -11   28.50    3.60
   3  15 -11   30.64    2.07
  -1 -15  11    0.90    0.67
  -1 -15  11    1.68    1.29
   1 -15 -11    1.34    0.74
   1  15 -11    0.01    0.79
  -1  15  11    1.33    0.60
   1  15 -11    1.26    1.78
   1 -15  11   17.63    1.32
  -1 -15 -11   12.67    1.39
   1  15  11   15.46    1.30
  -1  15 -11   13.64    1.58
  -1  15 -11   20.95    2.53
  -3 -15 -11   53.95    2.52
  -3  15 -11   56.38    3.98
  -3  15 -11   55.11    2.73
  -5 -15 -11   63.46    2.82
  -5  15 -11   64.64    4.18
  -5  15 -11   61.09    3.01
  -4 -16  11   -0.06    0.80
   2 -16 -11   18.80    1.66
  -2 -16  11   17.61    2.17
  -2 -16  11   15.54    1.50
   2  16 -11   23.78    3.63
   2  16 -11   16.85    1.85
   0 -16  11   67.52    3.04
   0 -16 -11   67.85    2.99
   0  16 -11   65.49    3.20
   0  16 -11   72.62    4.55
   0  16  11   64.96    2.67
  -2 -16 -11   58.86    2.72
  -2  16 -11   58.36    4.12
  -2  16 -11   58.78    2.92
   2  16  11   53.26    2.54
 -18   0  12   92.05    5.26
 -16   0  12   69.32    2.96
 -16   0  12   55.33    3.92
 -14   0  12    2.43    1.21
 -14   0  12    3.79    0.80
 -12   0  12   97.68    4.50
 -10   0  12  196.74    7.06
 -10   0  12  199.11    7.32
  -8   0  12   74.70    3.37
  -8   0  12   72.82    3.22
  -6   0  12   37.53    2.01
  -6   0  12   37.79    2.11
  -4   0  12   70.11    3.05
   4   0 -12   70.94    2.41
   4   0 -12   72.85    2.26
  -2   0  12  163.66    5.66
   2   0 -12  153.80    6.04
   2   0 -12  159.56    4.94
   2   0 -12  161.35    5.02
  -2   0  12  163.58    5.66
   0   0  12  121.52    4.54
   0   0 -12  120.57    3.99
   0   0  12  127.15    4.49
   0   0 -12  125.10    3.93
  -2   0 -12    0.96    0.32
  -2   0 -12    1.06    0.28
  -2   0 -12    1.06    0.68
   2   0  12    1.33    0.43
   2   0  12    1.15    0.48
  -4   0 -12  190.22    5.99
  -4   0 -12  186.47    6.47
   4   0  12  192.86    6.34
  -4   0 -12  185.41    6.05
   4   0  12  190.89    6.55
  -6   0 -12  145.03    4.80
  -6   0 -12  140.93    5.28
   6   0  12  144.65    5.23
  -8   0 -12   93.19    4.31
   8   0  12   83.89    3.59
  -8   0 -12   87.76    3.23
 -10   0 -12    5.87    0.89
  10   0  12    6.96    1.12
 -12   0 -12   77.87    3.02
  12   0  12   66.97    3.30
  14   0  12   48.69    2.78
 -14   0 -12   51.93    2.48
  16   0  12   48.98    2.91
 -16   0 -12   50.83    2.62
 -19  -1  12   -1.41    1.90
 -19   1  12    1.91    2.12
 -17  -1  12   13.72    1.71
 -17  -1  12   11.30    2.12
 -17   1  12    8.14    1.94
 -15  -1  12   71.18    3.04
 -15  -1  12   65.32    3.95
 -15   1  12   59.78    3.94
 -15   1  12   76.98    2.97
 -13  -1  12   49.68    3.14
 -13   1  12   46.42    3.15
 -11  -1  12   55.34    2.87
 -11  -1  12   56.67    3.16
 -11   1  12   57.39    2.88
 -11   1  12   60.58    3.18
  -9  -1  12   13.10    1.36
  -9  -1  12   13.12    1.53
  -9   1  12   15.09    1.58
  -9   1  12   14.25    1.40
  -7  -1  12  326.15   10.85
  -7  -1  12  325.77   10.69
  -7   1  12  322.34   10.78
   7   1 -12  331.11    9.83
  -7   1  12  323.91   10.68
   5  -1 -12  103.85    3.18
  -5  -1  12  103.94    4.11
  -5  -1  12  105.23    3.98
   5   1 -12  102.63    3.31
  -5   1  12  100.20    3.96
  -5   1  12   99.39    3.98
  -3  -1  12    0.34    0.47
   3  -1 -12    0.81    0.23
  -3  -1  12    1.51    0.53
   3  -1 -12    1.08    0.23
   3   1 -12    1.00    0.30
  -3   1  12    1.04    0.51
   3   1 -12    1.08    0.74
   3   1 -12    0.75    0.19
  -3   1  12    1.01    0.45
   1  -1 -12   19.72    0.89
  -1  -1  12   20.93    1.39
   1  -1 -12   20.08    0.87
  -1  -1  12   19.73    1.37
   1   1 -12   20.74    0.98
   1   1 -12   20.56    1.48
  -1   1  12   20.52    1.37
  -1   1  12   19.09    1.30
   1  -1  12   84.48    3.44
  -1  -1 -12   87.14    2.92
  -1  -1 -12   88.08    2.90
   1  -1  12   87.28    3.40
  -1  -1 -12   86.46    3.32
  -1   1 -12   89.66    3.42
   1   1  12   84.77    3.45
  -1   1 -12   87.30    3.00
  -1   1 -12   88.88    2.88
   1   1  12   88.54    3.31
   3  -1  12  184.94    6.31
  -3  -1 -12  179.32    5.74
   3  -1  12  177.19    6.14
  -3  -1 -12  182.16    6.16
  -3  -1 -12  178.27    5.76
   3   1  12  182.03    6.30
   3   1  12  180.51    6.06
  -3   1 -12  188.01    6.29
  -3   1 -12  182.51    5.84
  -5  -1 -12   41.05    2.27
  -5  -1 -12   45.60    1.79
  -5  -1 -12   43.43    1.73
   5  -1  12   44.56    2.20
  -5   1 -12   43.01    2.37
   5   1  12   42.25    2.17
  -5   1 -12   43.94    1.82
   7  -1  12   19.69    1.47
  -7  -1 -12   18.96    2.06
  -7  -1 -12   19.82    1.14
  -7   1 -12   18.58    1.15
   7   1  12   20.50    1.47
   9  -1  12  180.65    6.55
  -9  -1 -12  188.96    6.12
  -9   1 -12  183.30    6.78
  -9   1 -12  183.52    6.16
   9   1  12  186.87    6.58
  11  -1  12  152.81    5.60
 -11   1 -12  146.78    5.23
 -11   1 -12  149.47    6.06
  11   1  12  149.65    5.57
 -13  -1 -12   -0.46    0.57
  13  -1  12    0.81    0.79
 -13   1 -12    0.06    0.55
  13   1  12   -0.64    0.74
  15  -1  12   23.56    2.00
 -15  -1 -12   21.59    1.73
 -15   1 -12   19.46    1.64
  15   1  12   19.50    1.95
 -17  -1 -12   32.50    2.24
  17  -1  12   27.63    2.43
 -17   1 -12   27.61    2.12
  17   1  12   24.71    2.39
 -18  -2  12   76.03    4.90
 -18  -2  12   98.81    4.02
 -18   2  12   90.78    5.22
 -16  -2  12   23.49    2.77
 -16  -2  12   24.18    1.90
 -16   2  12   22.25    3.03
 -14  -2  12    4.50    0.86
 -14  -2  12    3.42    1.20
 -14   2  12    4.76    1.00
 -14   2  12    3.37    1.23
 -12   2  12   60.96    3.41
 -10  -2  12   42.99    2.41
 -10  -2  12   42.85    2.59
  10   2 -12   43.74    1.55
 -10   2  12   41.93    2.54
 -10   2  12   40.11    2.33
  -8  -2  12   20.32    1.54
  -8  -2  12   21.25    1.74
   8   2 -12   17.99    0.92
  -8   2  12   20.87    1.65
  -8   2  12   20.16    1.54
  -6  -2  12   16.48    1.51
  -6  -2  12   16.68    1.35
   6  -2 -12   16.08    0.74
  -6   2  12   18.41    1.36
  -6   2  12   19.14    1.46
   6   2 -12   17.35    0.88
  -4  -2  12   40.06    2.06
   4  -2 -12   38.96    1.47
  -4  -2  12   40.80    2.17
   4   2 -12   37.87    1.54
  -4   2  12   44.71    2.07
  -4   2  12   39.08    2.03
  -4   2  12   40.54    2.05
  -2  -2  12  133.00    4.97
  -2  -2  12  134.06    4.89
   2  -2 -12  135.11    4.24
   2   2 -12  133.88    4.39
   2   2 -12  135.91    4.15
  -2   2  12  133.46    4.78
  -2   2  12  135.81    4.88
   2   2 -12  137.26    4.78
   0  -2 -12  129.23    4.06
   0  -2  12  130.23    4.73
   0  -2 -12  129.02    4.12
   0  -2  12  123.80    4.68
   0   2 -12  128.12    4.25
   0   2 -12  135.24    4.68
   0   2  12  131.36    4.53
   0   2 -12  125.76    4.05
   0   2  12  127.56    4.70
   2  -2  12    9.27    0.99
  -2  -2 -12    8.35    0.62
   2  -2  12    8.72    0.98
  -2  -2 -12    8.53    0.61
  -2   2 -12    7.02    0.69
   2   2  12    7.14    0.84
   2   2  12    6.97    0.92
  -2   2 -12    9.31    1.33
   4  -2  12  110.94    4.19
  -4  -2 -12  109.43    3.66
   4  -2  12  109.89    4.09
  -4  -2 -12  109.02    3.66
  -4   2 -12  111.21    4.27
  -4   2 -12  111.44    3.79
   4   2  12  107.44    4.17
   6  -2  12   53.44    2.44
  -6  -2 -12   48.51    1.94
  -6  -2 -12   52.17    2.00
  -6   2 -12   45.68    3.06
   6   2  12   48.03    2.37
  -6   2 -12   49.65    2.07
  -8  -2 -12    7.61    0.82
  -8  -2 -12    7.22    0.75
   8  -2  12    8.85    1.16
  -8   2 -12    6.99    1.35
   8   2  12    9.02    1.08
  -8   2 -12    6.25    0.78
 -10  -2 -12    0.57    0.40
  10  -2  12    0.62    0.77
 -10  -2 -12    0.20    0.47
 -10   2 -12    0.84    0.50
 -10   2 -12   -0.66    1.09
  12  -2  12    0.60    0.77
 -12  -2 -12   -0.18    0.43
 -12  -2 -12    1.00    0.60
 -12   2 -12   -1.26    1.43
  12   2  12    1.40    0.74
 -12   2 -12    0.28    0.55
 -14  -2 -12   61.15    2.63
  14  -2  12   60.45    3.12
 -14  -2 -12   63.52    2.80
 -14   2 -12   66.23    2.86
  14   2  12   59.51    3.09
 -16  -2 -12   60.87    2.72
  16  -2  12   62.76    3.28
 -16  -2 -12   62.16    2.93
  16   2  12   59.64    3.26
 -16   2 -12   60.46    2.91
 -17  -3  12   15.14    1.86
 -17  -3  12   12.48    2.04
 -17   3  12   12.63    2.36
 -15  -3  12    7.31    1.09
 -15  -3  12    5.52    1.56
 -15   3  12    4.92    1.56
 -13  -3  12   47.74    3.09
 -13   3  12   43.99    3.32
 -11  -3  12    4.26    1.02
 -11  -3  12    4.42    1.12
 -11   3  12    5.30    1.15
 -11   3  12    5.47    1.05
  11   3 -12    6.11    0.68
  -9  -3  12   10.55    1.30
  -9  -3  12   11.25    1.52
  -9   3  12    8.21    1.23
   9   3 -12   10.47    0.75
  -9   3  12    9.72    1.43
  -7  -3  12   30.92    2.04
  -7  -3  12   28.78    1.79
   7   3 -12   29.18    1.28
  -7   3  12   29.56    1.80
  -7   3  12   27.42    1.86
  -5  -3  12  110.67    4.53
  -5  -3  12  121.58    4.43
   5  -3 -12  115.96    3.67
   5   3 -12  118.88    3.85
  -5   3  12  114.66    4.33
  -5   3  12  112.18    4.36
  -5   3  12  117.06    4.10
  -3  -3  12   17.31    1.43
  -3  -3  12   16.11    0.64
  -3  -3  12   16.83    1.31
   3  -3 -12   15.98    0.79
  -3   3  12   17.38    1.16
   3   3 -12   16.95    1.46
  -3   3  12   18.00    1.25
  -3   3  12   16.89    1.31
   3   3 -12   17.08    0.94
   3   3 -12   17.34    0.62
   1  -3 -12   69.55    2.34
  -1  -3  12   67.30    2.88
  -1  -3  12   68.74    2.99
  -1   3  12   70.12    2.74
   1   3 -12   68.12    2.23
   1   3 -12   68.73    2.94
  -1   3  12   66.97    2.88
   1   3 -12   67.81    2.49
  -1  -3 -12   29.36    1.20
   1  -3  12   29.71    1.66
   1  -3  12   29.19    1.71
   1   3  12   28.33    1.45
  -1   3 -12   25.57    1.79
  -1   3 -12   27.97    1.33
   1   3  12   27.24    1.64
  -3  -3 -12   33.06    1.34
   3  -3  12   33.54    1.84
   3  -3  12   34.87    1.85
  -3  -3 -12   32.29    1.40
   3   3  12   32.22    1.82
   3   3  12   32.74    1.55
  -3   3 -12   37.12    2.12
  -3   3 -12   35.64    1.56
   5  -3  12   53.33    2.42
   5  -3  12   54.36    2.48
  -5  -3 -12   50.07    1.97
  -5  -3 -12   50.57    1.95
  -5   3 -12   50.17    2.72
   5   3  12   49.85    2.42
  -5   3 -12   52.38    2.12
   7  -3  12   16.11    1.39
  -7  -3 -12   15.66    1.00
  -7  -3 -12   14.76    0.96
   7   3  12   13.17    1.29
  -7   3 -12   14.00    1.03
  -7   3 -12   14.37    1.78
  -9  -3 -12   59.26    2.35
  -9  -3 -12   58.24    2.38
   9  -3  12   56.11    2.79
  -9   3 -12   59.44    2.49
  -9   3 -12   63.38    3.29
   9   3  12   62.81    2.86
  11  -3  12   34.92    2.14
 -11  -3 -12   35.68    1.97
 -11  -3 -12   32.94    1.67
 -11   3 -12   35.77    2.92
  11   3  12   35.04    2.15
 -11   3 -12   33.64    1.85
  13  -3  12   26.98    2.07
 -13  -3 -12   29.45    1.61
 -13  -3 -12   27.34    1.71
 -13   3 -12   35.07    3.33
  13   3  12   25.51    2.03
 -13   3 -12   27.60    1.75
 -15  -3 -12    7.05    1.07
 -15  -3 -12    8.33    1.18
  15  -3  12   12.99    1.83
  15   3  12    8.26    1.40
 -15   3 -12    9.17    1.19
 -17  -3 -12   37.05    2.37
 -17  -3 -12   33.57    2.22
  17  -3  12   40.37    2.80
  17   3  12   37.98    2.74
 -17   3 -12   40.34    2.63
 -18  -4  12    4.70    1.28
 -18  -4  12    4.67    1.90
 -18   4  12    5.71    2.10
 -16  -4  12   25.61    2.90
 -16   4  12   17.61    2.42
 -14  -4  12    0.95    1.08
 -14   4  12   -0.41    1.18
 -12  -4  12   45.94    2.65
 -12  -4  12   42.29    2.90
 -12   4  12   43.51    2.94
 -12   4  12   42.79    2.75
  12   4 -12   48.07    1.84
 -10  -4  12    9.24    1.40
 -10  -4  12    9.58    1.45
  10   4 -12    9.79    0.84
 -10   4  12    9.98    1.40
 -10   4  12   11.65    1.40
  -8  -4  12    2.64    0.84
  -8  -4  12    2.94    0.77
  -8   4  12    3.14    0.78
  -8   4  12    3.08    0.83
   8   4 -12    3.02    0.49
   6  -4 -12    7.39    0.57
  -6  -4  12    5.66    0.84
  -6  -4  12    8.33    1.26
  -6   4  12    7.45    0.81
  -6   4  12    6.51    0.93
  -6   4  12    6.21    0.92
   6   4 -12    6.59    0.68
  -4  -4  12    2.81    0.76
  -4  -4  12    4.99    0.81
   4  -4 -12    3.91    0.47
  -4  -4  12    3.62    0.38
  -4   4  12    4.10    0.70
  -4   4  12    5.38    0.78
  -4   4  12    3.64    0.76
   4   4 -12    5.10    0.99
   4   4 -12    4.34    0.62
   2  -4 -12   42.46    1.57
  -2  -4  12   41.44    1.36
  -2  -4  12   41.99    2.11
  -2  -4  12   43.14    2.25
   2   4 -12   41.58    1.74
  -2   4  12   45.45    2.05
   2   4 -12   41.88    2.25
   2   4 -12   41.58    1.40
  -2   4  12   40.23    1.91
  -2   4  12   39.72    2.05
   0  -4  12    3.96    0.70
   0  -4 -12    4.19    0.49
   0  -4  12    1.92    0.63
   0   4 -12    3.28    0.50
   0   4 -12    3.11    0.86
   0   4  12    3.30    0.58
   0   4  12    3.30    0.64
  -2  -4 -12   -0.21    0.22
   2  -4  12    0.20    0.44
  -2  -4 -12    0.40    0.27
   2  -4  12    0.06    0.45
  -2   4 -12    0.26    0.32
   2   4  12    0.30    0.46
  -2   4 -12   -0.34    0.68
   2   4  12    0.03    0.60
   4  -4  12    4.94    0.77
  -4  -4 -12    5.79    0.58
   4  -4  12    6.62    0.95
  -4  -4 -12    4.97    0.60
   4   4  12    7.89    1.01
  -4   4 -12    6.78    1.10
  -4   4 -12    5.23    0.67
  -6  -4 -12   28.28    1.30
  -6  -4 -12   27.97    1.34
   6  -4  12   28.98    1.76
  -6   4 -12   26.80    1.45
  -6   4 -12   29.36    2.08
   6   4  12   28.99    1.76
   8  -4  12    0.60    0.66
  -8  -4 -12    0.61    0.37
  -8  -4 -12    1.14    0.46
  -8   4 -12    1.32    1.00
  -8   4 -12    0.46    0.43
   8   4  12    1.68    0.64
 -10  -4 -12    6.85    0.91
 -10  -4 -12    8.82    0.99
  10  -4  12    8.09    1.85
  10   4  12    6.22    1.00
 -10   4 -12    7.41    1.00
 -10   4 -12    8.75    1.59
  12  -4  12   -0.28    0.76
 -12  -4 -12    0.01    0.46
 -12  -4 -12    0.51    0.62
  12   4  12    0.36    0.79
 -12   4 -12   -0.37    0.53
 -12   4 -12    1.32    1.40
  14  -4  12   25.09    2.15
 -14  -4 -12   27.25    1.80
 -14  -4 -12   25.57    1.65
 -14   4 -12   33.90    3.58
  14   4  12   30.08    2.18
 -14   4 -12   27.45    1.87
 -16  -4 -12    9.57    1.33
 -16  -4 -12   14.10    1.67
  16  -4  12    9.06    1.51
 -16   4 -12    7.87    1.22
  16   4  12   10.02    1.47
 -17  -5  12   -1.12    1.63
 -17   5  12    4.58    2.01
 -15  -5  12    3.14    1.49
 -15   5  12    1.77    1.56
 -15   5  12    2.92    1.07
 -13  -5  12    2.27    1.23
 -13  -5  12    5.83    1.30
 -13   5  12    0.99    1.24
 -13   5  12    2.92    0.95
  13   5 -12    3.70    0.68
 -11  -5  12   10.35    1.85
 -11  -5  12    6.98    1.41
  11   5 -12    7.86    0.87
 -11   5  12   10.06    1.54
 -11   5  12    8.75    1.29
  -9  -5  12    3.94    0.91
  -9  -5  12    2.68    0.93
  -9   5  12    1.99    0.74
  -9   5  12    2.16    0.88
   9   5 -12    1.94    0.47
  -7  -5  12    5.69    1.11
   7  -5 -12    7.30    0.65
  -7  -5  12    9.41    1.20
  -7   5  12    7.24    1.05
  -7   5  12    8.09    1.27
  -7   5  12    9.05    0.91
   7   5 -12    8.33    0.78
  -5  -5  12    0.47    0.57
  -5  -5  12    0.04    0.57
  -5  -5  12    0.19    0.22
   5  -5 -12    0.02    0.29
  -5   5  12    0.11    0.40
   5   5 -12    0.53    0.82
   5   5 -12   -0.10    0.33
  -5   5  12   -0.44    0.52
  -5   5  12    0.25    0.49
  -3  -5  12   14.73    0.67
   3  -5 -12   15.35    0.82
  -3  -5  12   16.44    1.48
  -3  -5  12   14.81    1.31
  -3   5  12   15.54    1.04
   3   5 -12   13.74    0.95
  -3   5  12   15.75    1.14
   3   5 -12   13.38    1.58
  -3   5  12   14.14    1.22
  -1  -5  12    2.46    0.66
   1  -5 -12    1.07    0.30
  -1  -5  12    0.40    0.56
  -1  -5  12    1.07    0.18
   1   5 -12    1.05    0.38
  -1   5  12    0.91    0.51
  -1   5  12    1.03    0.47
   1   5 -12    1.44    0.82
   1  -5  12    6.90    0.98
   1  -5  12    7.66    1.06
  -1  -5 -12    5.15    0.56
  -1   5 -12    3.89    1.37
   1   5  12    4.95    0.70
   1   5  12    6.38    0.90
  -1   5 -12    4.90    0.68
   3  -5  12    4.23    0.77
   3  -5  12    3.69    0.71
  -3  -5 -12    4.55    0.58
   3   5  12    4.61    0.78
  -3   5 -12    5.00    0.68
  -3   5 -12    3.75    0.90
  -5  -5 -12   19.85    0.97
   5  -5  12   20.23    1.55
   5  -5  12   19.64    1.51
  -5  -5 -12   20.08    1.09
   5   5  12   19.36    1.45
  -5   5 -12   19.32    1.80
  -5   5 -12   20.24    1.20
  -7  -5 -12    6.63    0.73
  -7  -5 -12    6.12    0.78
   7  -5  12    7.00    1.06
  -7   5 -12    7.87    0.90
   7   5  12    7.39    1.09
  -7   5 -12    5.90    1.28
  -9  -5 -12   18.88    1.22
   9  -5  12   18.62    1.64
  -9   5 -12   19.17    1.35
  -9   5 -12   20.89    2.32
   9   5  12   19.41    1.59
  11  -5  12   10.18    1.53
 -11  -5 -12   11.00    1.04
 -11  -5 -12   10.92    1.18
  11   5  12   13.02    1.50
 -11   5 -12   12.24    1.81
 -11   5 -12   12.66    1.24
 -13  -5 -12   10.63    1.10
  13  -5  12   10.27    1.38
 -13  -5 -12    8.50    1.30
  13   5  12    8.55    1.28
 -13   5 -12    8.33    1.05
 -15  -5 -12    7.84    0.97
 -15  -5 -12    8.09    1.09
  15  -5  12    8.65    1.46
  15   5  12    7.85    1.38
 -15   5 -12    6.58    1.15
 -16  -6  12    2.91    1.56
 -16   6  12    0.71    1.84
 -16   6  12    0.43    1.17
 -14  -6  12    5.93    1.49
 -14  -6  12    9.17    1.57
 -14   6  12    7.87    1.31
 -14   6  12    8.23    1.78
 -12  -6  12   -0.40    0.93
 -12  -6  12    0.01    1.02
  12   6 -12    1.47    0.58
 -12   6  12    1.60    0.88
 -12   6  12    0.93    1.19
 -10  -6  12   14.65    1.70
 -10  -6  12   12.16    1.89
 -10   6  12   13.87    1.84
  10   6 -12   15.47    1.12
 -10   6  12   14.68    1.53
  -8  -6  12    5.37    1.11
  -8  -6  12    4.38    0.91
   8   6 -12    4.40    0.63
  -8   6  12    4.29    0.66
  -8   6  12    3.84    0.80
  -8   6  12    4.45    0.96
  -6  -6  12    0.84    0.67
   6  -6 -12    1.24    0.38
  -6  -6  12    0.79    0.68
  -6  -6  12    0.99    0.30
   6   6 -12    0.77    0.42
  -6   6  12    0.20    0.40
  -6   6  12    1.51    0.67
  -6   6  12    0.74    0.55
  -4  -6  12   21.31    1.59
   4  -6 -12   21.25    1.04
  -4  -6  12   20.36    1.74
  -4  -6  12   21.59    0.94
  -4   6  12   20.33    1.38
  -4   6  12   22.23    1.19
   4   6 -12   22.93    1.94
   4   6 -12   21.05    1.22
  -4   6  12   20.43    1.46
  -2  -6  12    5.69    0.91
  -2  -6  12    7.44    0.49
  -2  -6  12    8.74    1.15
   2  -6 -12    7.68    0.64
   2   6 -12    7.58    0.78
   2   6 -12    9.20    2.04
  -2   6  12    5.86    0.89
  -2   6  12    7.04    0.98
   0  -6 -12    5.65    0.59
   0  -6  12    5.52    0.37
   0  -6  12    5.66    0.85
   0  -6  12    3.97    0.82
   0   6 -12    4.52    1.05
   0   6 -12    4.80    0.68
   0   6  12    6.11    0.88
   0   6  12    4.59    0.69
   2  -6  12   13.60    1.28
  -2  -6 -12   12.76    0.86
   2  -6  12   13.81    1.32
  -2   6 -12   14.83    1.01
   2   6  12   15.05    1.24
  -2   6 -12   12.54    1.58
  -4  -6 -12    1.19    0.36
   4  -6  12    1.02    0.58
   4  -6  12    1.11    0.62
   4   6  12    0.87    0.53
  -4   6 -12    2.74    0.95
  -4   6 -12    1.12    0.38
  -6  -6 -12   40.63    1.79
  -6  -6 -12   42.89    1.63
   6  -6  12   43.86    2.28
   6   6  12   40.08    2.18
  -6   6 -12   42.25    2.60
  -6   6 -12   41.55    1.95
  -8  -6 -12    7.27    0.87
  -8  -6 -12    9.41    1.01
   8  -6  12    7.49    1.08
  -8   6 -12    6.98    1.41
  -8   6 -12    7.71    1.24
   8   6  12    8.59    1.14
  10  -6  12    0.84    0.80
 -10   6 -12    1.22    1.28
  10   6  12    1.60    0.75
 -10   6 -12    1.21    0.54
  12  -6  12    1.78    0.92
 -12  -6 -12    2.58    0.80
 -12  -6 -12    3.43    0.64
 -12   6 -12    3.22    0.77
  12   6  12    2.38    0.94
 -14  -6 -12    8.40    1.18
 -14  -6 -12    7.10    1.07
  14  -6  12    8.61    1.33
 -14   6 -12    9.03    1.23
  14   6  12    9.58    1.32
 -14   6 -12   10.68    2.15
 -17  -7  12   -0.89    1.62
 -17  -7  12   -1.98    1.82
 -17   7  12    0.07    2.01
 -17   7  12    1.31    1.36
 -15  -7  12   21.22    2.53
 -15  -7  12   19.97    2.82
 -15   7  12   16.79    2.31
 -15   7  12   14.97    2.35
  15   7 -12   19.17    1.61
 -13  -7  12   58.85    3.33
 -13  -7  12   58.38    3.66
 -13   7  12   59.41    3.78
  13   7 -12   61.47    2.58
 -13   7  12   60.66    3.16
 -11  -7  12    4.42    1.24
 -11  -7  12    2.67    1.05
 -11   7  12    0.20    1.32
 -11   7  12   -0.08    1.09
  11   7 -12    3.24    0.70
  -9  -7  12   24.14    2.19
  -9  -7  12   26.71    1.99
   9   7 -12   26.20    1.50
  -9   7  12   28.18    2.13
  -9   7  12   27.13    1.83
  -7  -7  12   15.13    1.51
   7  -7 -12   16.29    0.99
  -7  -7  12   15.54    0.92
  -7  -7  12   16.84    1.81
  -7   7  12   16.59    1.41
  -7   7  12   16.74    0.93
   7   7 -12   15.52    1.15
  -7   7  12   16.38    1.55
  -5  -7  12   11.72    1.58
  -5  -7  12   14.91    1.45
   5  -7 -12   13.68    0.87
  -5  -7  12   14.33    0.79
   5   7 -12   12.57    1.03
  -5   7  12   14.65    1.28
  -5   7  12   13.79    0.94
  -5   7  12   13.21    1.27
   5   7 -12   12.12    2.01
  -3  -7  12   10.67    1.29
  -3  -7  12   11.37    0.66
   3  -7 -12   10.59    0.80
  -3  -7  12   11.31    1.40
  -3   7  12   11.50    1.18
  -3   7  12   12.50    1.11
   3   7 -12   11.30    1.73
   3   7 -12   12.26    0.98
  -1  -7  12    7.72    1.15
   1  -7 -12    8.46    0.72
  -1  -7  12    8.21    0.55
  -1  -7  12    9.27    1.21
  -1   7  12    7.27    0.74
  -1   7  12    7.65    1.07
   1   7 -12    7.09    0.82
   1   7 -12   10.17    1.40
   1  -7  12    7.42    0.49
   1  -7  12    7.43    1.12
   1  -7  12    8.35    1.19
  -1  -7 -12    7.35    0.71
  -1   7 -12    6.18    1.18
   1   7  12    8.12    1.04
  -1   7 -12    6.33    0.79
  -3  -7 -12   22.22    1.19
   3  -7  12   21.84    1.67
   3  -7  12   23.75    1.64
   3   7  12   24.33    1.58
  -3   7 -12   24.76    1.98
  -3   7 -12   22.29    1.33
  -5  -7 -12   32.96    1.56
   5  -7  12   33.43    1.99
  -5   7 -12   31.46    1.67
  -5   7 -12   39.69    2.46
   5   7  12   33.12    1.90
  -7  -7 -12   13.17    0.92
  -7  -7 -12   11.94    1.20
   7  -7  12   14.79    1.48
  -7   7 -12   13.51    1.96
   7   7  12   12.81    1.34
  -7   7 -12   10.84    1.22
  -9  -7 -12   17.67    1.20
  -9  -7 -12   18.84    1.25
   9   7  12   16.93    1.68
  -9   7 -12   18.86    2.39
  -9   7 -12   16.46    1.34
 -11  -7 -12    9.72    1.09
  11  -7  12   10.93    1.41
 -11  -7 -12   13.36    1.34
 -11   7 -12   12.86    1.29
  11   7  12    9.75    1.28
 -13  -7 -12   14.07    1.31
  13  -7  12   15.14    1.94
 -13  -7 -12   14.90    1.61
 -13   7 -12   14.64    1.51
  13   7  12   13.96    1.76
 -13   7 -12   16.28    2.41
  15  -7  12    4.74    1.33
 -15  -7 -12    2.92    1.07
 -15  -7 -12    1.02    0.75
 -15   7 -12    2.16    2.05
  15   7  12    0.59    1.12
 -15   7 -12    0.40    0.90
 -16  -8  12   10.09    2.09
 -16  -8  12   11.61    1.98
 -16   8  12   10.69    1.65
 -16   8  12    6.92    2.22
 -14  -8  12    3.21    1.47
 -14  -8  12    6.66    1.67
 -14   8  12    6.34    1.38
  14   8 -12    4.68    0.99
 -14   8  12    3.01    1.93
 -12  -8  12   42.03    2.74
 -12  -8  12   40.91    3.07
 -12   8  12   41.74    2.62
 -12   8  12   36.06    4.03
  12   8 -12   40.02    2.07
 -10  -8  12  106.83    4.90
  10   8 -12  108.18    4.01
 -10   8  12  112.44    4.77
 -10   8  12  111.04    4.43
  -8  -8  12   45.95    2.48
  -8  -8  12   44.18    1.81
  -8  -8  12   40.32    2.72
  -8   8  12   43.59    2.33
   8   8 -12   41.73    2.04
  -8   8  12   45.86    2.52
   6  -8 -12    3.19    0.51
  -6  -8  12    2.40    0.91
  -6  -8  12    3.75    0.92
  -6  -8  12    3.05    0.45
  -6   8  12    3.59    0.77
  -6   8  12    3.87    0.84
   6   8 -12    2.43    0.58
  -6   8  12    3.09    0.45
  -4  -8  12  126.71    5.26
   4  -8 -12  133.46    4.40
  -4  -8  12  136.76    4.29
  -4  -8  12  136.27    4.95
   4   8 -12  134.95    5.27
  -4   8  12  137.07    4.60
  -4   8  12  129.94    4.84
   4   8 -12  126.92    4.62
  -2  -8  12   32.35    1.28
  -2  -8  12   31.33    2.14
   2  -8 -12   31.37    1.43
  -2  -8  12   32.78    1.96
   2   8 -12   33.51    2.37
  -2   8  12   31.82    1.80
   2   8 -12   33.34    1.67
   0  -8 -12   21.90    1.19
   0  -8  12   23.34    1.63
   0  -8  12   23.87    1.84
   0  -8  12   23.82    1.00
   0   8 -12   25.66    2.18
   0   8  12   23.97    1.54
   0   8 -12   23.42    1.37
   2  -8  12    1.60    0.75
   2  -8  12    2.46    0.76
  -2  -8 -12    2.51    0.46
   2  -8  12    2.60    0.36
  -2   8 -12    2.96    0.61
   2   8  12    3.07    0.68
  -2   8 -12    4.59    1.17
   4  -8  12   20.41    1.54
   4  -8  12   16.52    1.58
  -4  -8 -12   16.39    1.09
  -4   8 -12   18.82    1.27
   4   8  12   17.66    1.40
  -4   8 -12   15.31    1.95
   6  -8  12  115.27    4.37
  -6   8 -12  111.69    4.16
   6   8  12  108.79    4.32
  -6   8 -12  117.48    4.89
  -8  -8 -12   83.06    3.18
   8  -8  12   85.69    3.62
  -8   8 -12   86.96    3.41
  -8   8 -12   90.40    4.23
   8   8  12   80.92    3.99
 -10  -8 -12    1.43    0.61
  10  -8  12    2.62    1.01
 -10   8 -12    2.97    0.75
  10   8  12    2.60    0.94
 -12  -8 -12   48.88    2.30
  12  -8  12   49.81    2.85
 -12   8 -12   48.75    2.46
  12   8  12   48.93    2.72
 -12   8 -12   53.69    3.91
 -14  -8 -12   69.93    3.15
  14  -8  12   80.04    3.80
  14   8  12   73.18    4.15
 -14   8 -12   76.78    3.40
 -14   8 -12   84.64    4.88
 -15  -9  12   95.98    5.20
 -15  -9  12  109.20    4.94
 -15   9  12   96.42    4.49
 -15   9  12   85.81    5.37
  15   9 -12   98.42    3.90
 -13  -9  12   36.44    2.95
 -13  -9  12   35.73    3.14
 -13   9  12   32.04    3.23
 -13   9  12   36.44    2.54
  13   9 -12   33.33    2.05
 -11  -9  12    0.92    1.18
 -11  -9  12    2.63    1.16
  11   9 -12    1.91    0.74
 -11   9  12    5.00    1.44
 -11   9  12    3.15    1.10
  -9  -9  12   17.70    1.16
  -9  -9  12   16.93    2.14
  -9  -9  12   17.49    1.92
   9   9 -12   17.34    1.40
  -9   9  12   18.28    2.04
  -9   9  12   17.17    1.65
  -7  -9  12   57.67    3.34
  -7  -9  12   64.71    2.35
  -7  -9  12   64.70    3.04
   7  -9 -12   61.89    2.40
  -7   9  12   58.79    2.84
   7   9 -12   60.25    2.64
  -7   9  12   60.84    2.82
  -5  -9  12  103.02    3.40
  -5  -9  12  104.19    4.06
  -5  -9  12   91.09    4.61
   5  -9 -12  102.45    3.50
   5   9 -12   97.26    4.48
  -5   9  12  103.08    3.33
  -5   9  12   99.75    3.91
   5   9 -12   95.79    4.12
  -3  -9  12   38.40    2.20
  -3  -9  12   36.51    2.50
  -3  -9  12   38.63    1.53
   3  -9 -12   39.42    1.68
  -3   9  12   36.45    2.06
   3   9 -12   40.96    2.77
   3   9 -12   37.57    1.90
  -1  -9  12   21.64    1.83
  -1  -9  12   22.29    1.63
  -1  -9  12   19.22    0.96
   1  -9 -12   20.71    1.64
  -1   9  12   20.00    1.56
   1   9 -12   18.82    1.32
   1   9 -12   20.35    2.21
   1  -9  12  228.44    8.22
  -1  -9 -12  228.07    7.41
   1  -9  12  237.45    7.17
   1  -9  12  236.24    7.81
   1   9  12  230.77    7.78
  -1   9 -12  231.14    7.68
  -1   9 -12  234.88    8.27
   3  -9  12   84.98    3.35
  -3  -9 -12   81.07    2.93
   3  -9  12   64.52    4.26
   3   9  12   80.78    3.27
  -3   9 -12   87.19    3.90
  -3   9 -12   69.84    3.57
  -5  -9 -12   -0.02    0.43
   5  -9  12    0.68    0.92
   5   9  12    0.54    0.64
  -5   9 -12    0.16    0.48
  -5   9 -12    0.22    1.08
   7  -9  12   29.57    2.06
  -7  -9 -12   28.56    1.55
  -7   9 -12   32.77    2.67
   7   9  12   28.37    1.91
  -7   9 -12   26.16    1.67
  -9  -9 -12   31.93    1.70
   9  -9  12   32.98    2.31
  -9   9 -12   30.47    1.86
   9   9  12   33.13    2.14
  -9   9 -12   29.42    2.94
  11  -9  12   63.36    3.18
 -11  -9 -12   58.42    2.62
 -11   9 -12   60.03    2.83
  11   9  12   64.43    3.08
 -11   9 -12   59.13    4.01
 -13  -9 -12   12.40    1.39
  13  -9  12   15.64    2.20
 -13   9 -12   13.26    2.42
  13   9  12   15.76    2.01
 -13   9 -12    9.89    1.26
 -14 -10  12    8.66    1.90
 -14 -10  12   10.63    2.08
  14  10 -12    9.42    1.25
 -14  10  12   12.29    1.61
 -12 -10  12   12.50    1.41
 -12 -10  12   13.45    1.97
 -12 -10  12   13.02    1.82
 -12  10  12   12.52    1.53
  12  10 -12   15.43    1.62
 -10 -10  12   59.74    2.43
 -10 -10  12   60.55    3.22
 -10 -10  12   53.71    3.48
 -10  10  12   56.71    3.00
  10  10 -12   60.33    2.72
  -8 -10  12   98.52    4.09
  -8 -10  12   86.50    4.38
  -8 -10  12   96.99    3.34
  -8  10  12   88.61    3.82
   8  10 -12   92.57    3.66
   6 -10 -12    0.66    0.51
  -6 -10  12   -0.13    0.41
  -6 -10  12    2.76    0.97
  -6 -10  12   -1.00    0.85
  -6  10  12   -0.51    0.70
   6  10 -12   -0.01    0.55
  -4 -10  12   53.99    2.71
  -4 -10  12   52.62    2.03
   4 -10 -12   54.92    2.19
  -4 -10  12   50.82    3.02
   4  10 -12   49.65    2.38
  -4  10  12   52.00    2.50
   4  10 -12   56.99    3.42
  -2 -10  12  154.24    4.87
  -2 -10  12  153.47    5.47
   2 -10 -12  151.09    5.04
  -2 -10  12  144.05    5.86
  -2  10  12  157.13    5.41
   2  10 -12  142.95    5.27
   2  10 -12  154.38    6.07
   0 -10  12   99.14    4.28
   0 -10 -12   95.37    3.55
   0 -10  12  103.32    3.97
   0 -10  12  102.20    3.36
   0  10 -12  100.62    3.81
   0  10 -12  106.63    4.56
   0  10  12   98.24    3.87
   2 -10  12   13.15    1.52
   2 -10  12   12.19    0.82
   2 -10  12   10.89    1.52
  -2  10 -12   11.76    1.13
   2  10  12   11.88    1.32
  -2  10 -12   15.07    2.09
  -4 -10 -12   97.24    3.53
   4 -10  12   99.75    3.92
  -4  10 -12   97.47    4.49
   4  10  12  100.09    3.85
  -4  10 -12   92.17    3.72
   6 -10  12   49.92    2.64
  -6 -10 -12   50.19    2.19
  -6  10 -12   51.66    3.31
   6  10  12   48.94    2.50
  -6  10 -12   47.55    2.32
   8 -10  12   42.64    2.63
  -8 -10 -12   42.04    2.01
  -8  10 -12   42.63    3.27
   8  10  12   42.52    2.39
  -8  10 -12   41.44    2.18
  10 -10  12    1.03    1.15
 -10 -10 -12    1.02    0.63
 -10  10 -12    0.84    1.55
 -10  10 -12    0.66    0.71
  10  10  12    1.31    0.99
  12 -10  12   59.73    3.19
 -12 -10 -12   51.68    2.57
  12  10  12   60.91    3.09
 -12  10 -12   55.96    2.81
 -12  10 -12   53.43    4.17
 -13 -11  12   33.06    3.47
 -13 -11  12   31.94    4.66
 -13 -11  12   41.34    2.05
  13  11 -12   30.94    2.29
 -11 -11  12    1.24    0.73
 -11 -11  12    1.51    1.43
 -11 -11  12    2.12    1.41
  11  11 -12    2.48    0.93
  -9 -11  12    3.72    1.40
  -9 -11  12    3.38    1.32
   9  11 -12    2.92    0.86
  -7 -11  12   98.09    4.09
  -7 -11  12   91.82    3.33
   7 -11 -12   91.67    3.43
  -7 -11  12   88.68    4.37
   7  11 -12   90.78    3.69
  -7  11  12   90.85    3.74
  -5 -11  12   70.69    2.54
   5 -11 -12   64.21    2.74
  -5 -11  12   74.69    3.28
  -5 -11  12   61.02    3.49
  -5  11  12   69.43    3.01
   5  11 -12   62.86    2.87
  -3 -11  12   28.03    2.07
  -3 -11  12   25.51    2.25
  -3 -11  12   28.17    1.35
   3 -11 -12   25.42    1.54
   3  11 -12   29.15    2.84
  -3  11  12   27.95    1.83
   3  11 -12   28.34    1.71
   1 -11 -12    7.35    0.96
  -1 -11  12    8.15    1.29
  -1 -11  12    9.48    0.81
  -1 -11  12    7.89    1.19
  -1  11  12    8.62    1.29
   1  11 -12   10.02    1.13
   1  11 -12    9.72    1.75
   1 -11  12  172.96    5.32
   1 -11  12  167.57    5.86
  -1 -11 -12  163.71    5.54
   1 -11  12  157.49    6.27
   1  11  12  172.02    5.81
  -1  11 -12  168.67    6.61
  -1  11 -12  155.96    5.76
  -3 -11 -12  112.09    4.06
   3 -11  12  115.60    4.42
   3  11  12  117.54    4.33
  -3  11 -12  111.61    4.28
  -3  11 -12  115.54    5.15
  -5 -11 -12    1.00    0.54
   5 -11  12    0.97    1.03
   5  11  12    1.41    0.85
  -5  11 -12    0.82    0.59
  -7 -11 -12    8.63    1.10
  -7  11 -12   10.41    1.77
  -7  11 -12    8.76    1.12
   7  11  12   13.92    1.62
  -9 -11 -12   38.66    2.06
   9  11  12   43.45    2.47
  -9  11 -12   41.27    2.30
  -9  11 -12   41.78    3.51
 -11 -11 -12   71.10    3.06
  11  11  12   78.49    3.52
 -11  11 -12   72.92    3.32
 -11  11 -12   71.75    4.59
 -12 -12  12   41.55    2.18
 -12 -12  12   37.72    3.61
  12  12 -12   38.98    2.49
 -10 -12  12  111.03    3.82
 -10 -12  12   95.55    4.99
  10  12 -12   97.69    4.13
  -8 -12  12   17.54    1.35
  -8 -12  12   15.04    2.38
   8  12 -12   19.08    1.74
  -6 -12  12    4.78    0.71
   6 -12 -12    3.52    0.76
  -6 -12  12    1.49    1.14
   6  12 -12    4.18    0.84
   4 -12 -12   55.75    2.42
  -4 -12  12   52.69    3.25
  -4 -12  12   59.13    2.28
   4  12 -12   58.39    3.95
   4  12 -12   56.91    2.67
   2 -12 -12   54.13    2.35
  -2 -12  12   60.08    2.21
  -2 -12  12   51.01    3.07
   2  12 -12   55.15    2.63
   2  12 -12   56.89    3.80
   0 -12  12   15.99    1.88
   0 -12 -12   12.42    1.18
   0 -12  12   15.45    1.02
   0  12 -12   11.42    1.32
   0  12 -12   13.63    2.08
  -2 -12 -12    1.76    0.61
   2 -12  12    1.31    1.04
  -2  12 -12    1.36    0.65
  -4 -12 -12    9.16    1.09
  -4  12 -12    6.06    0.92
  -4  12 -12    8.07    1.73
  -6 -12 -12  107.64    4.07
  -6  12 -12  114.62    5.36
  -6  12 -12  115.01    4.39
  -8 -12 -12   70.07    2.89
  -8  12 -12   66.59    3.08
 -10 -12 -12    0.80    0.76
 -10  12 -12    2.68    1.84
 -10  12 -12    1.03    0.87
  -9 -13  12   23.48    2.89
  -9 -13  12   22.83    1.60
   9  13 -12   18.25    1.88
   7 -13 -12   10.87    1.50
  -7 -13  12   12.95    1.27
  -7 -13  12    8.48    1.76
   7  13 -12   16.22    1.64
  -5 -13  12   32.38    1.66
  -5 -13  12   32.42    2.80
   5 -13 -12   30.22    1.81
   5  13 -12   31.72    2.06
  -3 -13  12    6.15    1.36
   3 -13 -12    4.57    0.79
  -3 -13  12    4.56    0.72
  -3  13  12    4.04    0.52
   3  13 -12    4.20    1.86
   3  13 -12    5.98    1.00
  -1 -13  12   12.01    1.13
  -1 -13  12    9.84    1.51
   1 -13 -12   12.33    1.23
   1  13 -12   11.82    1.42
   1  13 -12   13.04    2.11
  -1 -13 -12    8.23    1.14
   1 -13  12    6.72    1.39
  -1  13 -12    6.40    1.00
  -1  13 -12    6.93    1.93
  -3 -13 -12   34.13    1.85
  -3  13 -12   34.44    3.22
  -3  13 -12   35.45    2.06
  -5 -13 -12   20.54    1.52
  -5  13 -12   22.55    1.77
  -5  13 -12   20.71    3.05
  -7 -13 -12    5.16    0.87
  -7  13 -12    6.58    1.99
  -7  13 -12    3.61    0.88
  -8 -14  12    9.85    2.00
  -8 -14  12   10.72    1.40
   8  14 -12    8.32    1.30
  -6 -14  12   -0.50    1.47
  -6 -14  12    1.85    0.70
   6 -14 -12    0.54    0.81
   6  14 -12    0.35    0.89
  -4 -14  12    4.44    0.78
  -4 -14  12    4.21    1.39
   4 -14 -12    4.27    0.90
   4  14 -12    2.97    0.98
  -2 -14  12   29.17    2.66
   2 -14 -12   26.23    1.78
  -2 -14  12   32.34    2.31
   2  14 -12   32.17    3.72
   2  14 -12   26.58    2.00
  -2  14  12   25.97    1.38
   0 -14  12    1.61    1.18
   0 -14 -12    0.56    0.70
   0  14 -12   -1.32    0.71
   0  14 -12    1.80    1.92
  -2 -14 -12    0.59    0.68
  -2  14 -12    3.06    1.94
  -2  14 -12    1.39    0.86
  -4 -14 -12    3.71    0.87
  -4  14 -12    4.03    0.92
  -4  14 -12    4.04    2.01
  -6 -14 -12   16.83    1.53
  -6  14 -12   16.31    1.77
  -6  14 -12   22.45    3.34
   5 -15 -12    6.07    1.11
  -5 -15  12    6.31    1.76
   5  15 -12    5.83    1.19
   3 -15 -12    1.94    0.80
  -3 -15  12    1.24    1.47
   3  15 -12    0.80    0.95
  -1 -15  12    1.61    1.39
   1 -15 -12    0.64    0.83
   1  15 -12    3.66    0.96
   1  15 -12    4.24    2.07
  -1  15  12    1.55    0.62
  -1 -15 -12   16.44    1.62
  -1  15 -12   19.67    1.85
   1  15  12   18.60    1.42
  -1  15 -12   23.92    3.55
  -3 -15 -12    2.99    0.83
  -3  15 -12   -1.93    0.84
  -3  15 -12    0.24    2.00
 -18   0  13    1.73    2.01
 -16   0  13   -0.82    1.46
 -14   0  13    1.83    1.31
 -14   0  13    0.20    1.24
 -12   0  13   -1.47    1.01
 -12   0  13   -1.17    0.78
 -10   0  13    0.51    0.77
 -10   0  13   -0.82    0.81
  -8   0  13   -0.50    0.71
  -8   0  13   -0.56    0.56
  -6   0  13    0.26    0.61
  -6   0  13   -0.22    0.52
   4   0 -13    0.22    0.29
  -4   0  13    0.01    0.50
  -4   0  13    0.11    0.51
   4   0 -13    0.21    0.21
   2   0 -13    0.28    0.26
   2   0 -13   -0.04    0.26
  -2   0  13   -0.83    0.46
  -2   0  13    0.01    0.50
   0   0  13    0.66    0.46
   0   0 -13   -0.25    0.28
   0   0  13   -0.26    0.42
   0   0 -13    0.05    0.24
  -2   0 -13   -0.23    0.31
   2   0  13    0.01    0.44
   2   0  13    0.71    0.48
  -2   0 -13   -0.11    0.27
  -4   0 -13    0.25    0.30
  -4   0 -13    0.02    0.34
   4   0  13    0.36    0.53
   4   0  13    0.36    0.46
   6   0  13   -0.36    0.51
  -6   0 -13   -0.19    0.36
  -6   0 -13   -0.08    0.31
   8   0  13    0.12    0.61
  -8   0 -13   -0.27    0.43
 -10   0 -13    0.60    0.52
  10   0  13    1.40    0.74
 -12   0 -13   -0.19    0.59
  12   0  13    0.76    0.86
 -14   0 -13    0.20    0.73
  16   0  13    2.26    1.21
 -16   0 -13    0.48    1.00
 -17  -1  13   12.75    2.13
 -17   1  13    9.58    2.15
 -15  -1  13   25.10    2.94
 -15  -1  13   28.51    2.56
 -15   1  13   35.27    3.17
 -15   1  13   24.14    2.44
 -13  -1  13    1.90    1.20
 -13  -1  13    3.90    1.15
 -13   1  13    0.88    0.91
 -13   1  13    1.91    1.20
 -11  -1  13   12.57    2.47
 -11  -1  13   16.60    1.76
 -11   1  13   16.29    1.73
 -11   1  13   18.00    2.05
  -9  -1  13    1.45    0.76
  -9  -1  13    0.92    0.78
  -9   1  13   -0.09    0.71
  -9   1  13    0.03    0.65
  -7  -1  13    1.45    0.76
  -7  -1  13    0.57    0.56
  -7   1  13    1.04    0.67
  -7   1  13    1.36    0.72
   5  -1 -13    6.09    0.45
  -5  -1  13    4.19    0.76
  -5  -1  13    7.36    1.16
  -5   1  13    4.53    0.81
  -5   1  13    4.58    0.86
   5   1 -13    5.34    0.54
  -3  -1  13    1.43    0.61
  -3  -1  13    0.78    0.58
   3  -1 -13    0.56    0.45
   3   1 -13    0.98    0.23
   3   1 -13    1.41    0.35
  -3   1  13    0.86    0.59
  -3   1  13    1.07    0.57
   1  -1 -13    5.72    0.50
  -1  -1  13    4.47    0.78
  -1  -1  13    7.37    1.01
   1  -1 -13    5.08    0.53
   1   1 -13    5.41    0.49
  -1   1  13    5.31    0.89
  -1   1  13    5.29    0.78
   1   1 -13    5.65    0.61
  -1  -1 -13   17.21    0.90
  -1  -1 -13   16.72    0.87
   1  -1  13   15.78    1.31
   1  -1  13   16.44    1.35
   1   1  13   16.12    1.32
  -1   1 -13   18.07    0.98
   1   1  13   16.81    1.27
  -1   1 -13   15.71    0.82
  -3  -1 -13   21.33    1.12
   3  -1  13   22.74    1.46
   3  -1  13   21.04    1.55
  -3  -1 -13   23.13    1.09
  -3   1 -13   22.27    1.18
   3   1  13   23.14    1.38
   3   1  13   21.84    1.54
  -3   1 -13   24.66    1.10
  -5  -1 -13   28.52    1.33
  -5  -1 -13   30.40    1.41
   5  -1  13   28.17    1.83
   5   1  13   29.87    1.82
  -5   1 -13   30.52    1.47
   7  -1  13   11.72    1.31
  -7  -1 -13   12.28    1.00
  -7  -1 -13   11.07    0.90
  -7   1 -13   13.49    1.04
   7   1  13   12.19    1.30
  -9  -1 -13    2.48    0.57
  -9  -1 -13    1.94    0.57
   9  -1  13    1.71    0.74
  -9   1 -13    1.34    0.64
   9   1  13    1.38    0.72
 -11  -1 -13    0.43    0.60
  11  -1  13    1.04    0.73
 -11  -1 -13    0.98    0.51
  11   1  13    0.51    0.74
 -11   1 -13    0.57    0.57
 -13  -1 -13    0.50    0.70
  13  -1  13    0.39    0.92
 -13  -1 -13    0.64    0.57
  13   1  13   -0.37    0.81
 -13   1 -13    1.40    0.70
 -15  -1 -13    4.36    1.00
 -15  -1 -13    1.54    0.70
  15  -1  13    1.39    1.07
 -15   1 -13    2.51    0.91
  15   1  13    2.50    1.14
 -18  -2  13   14.03    2.52
 -18   2  13   17.23    2.72
 -16  -2  13    3.10    1.64
 -16   2  13    5.37    1.51
 -16   2  13    5.28    1.73
 -14  -2  13   68.83    3.61
 -14  -2  13   69.50    3.98
 -14   2  13   61.26    3.93
 -14   2  13   64.66    3.56
 -12  -2  13   46.04    2.78
 -12  -2  13   45.71    3.03
 -12   2  13   45.94    3.04
 -12   2  13   44.19    2.71
 -10  -2  13    2.11    0.91
 -10  -2  13   -0.04    1.08
 -10   2  13    1.68    0.86
 -10   2  13    1.60    0.91
  -8  -2  13    3.39    0.86
  -8  -2  13    1.40    0.77
  -8   2  13    3.46    0.88
   8   2 -13    2.19    0.40
  -8   2  13    1.25    0.66
  -6  -2  13    9.82    1.39
   6  -2 -13    9.86    0.61
  -6  -2  13    9.99    1.24
  -6   2  13   12.02    1.30
  -6   2  13    8.90    1.18
   6   2 -13   11.01    0.73
   4  -2 -13   71.01    2.29
  -4  -2  13   68.24    3.03
  -4  -2  13   66.89    3.11
  -4   2  13   66.92    2.96
  -4   2  13   66.52    3.02
   4   2 -13   69.63    2.42
   2  -2 -13   11.74    0.68
  -2  -2  13   13.01    1.28
  -2  -2  13   10.51    1.15
   2   2 -13   13.10    0.82
  -2   2  13   12.56    1.18
  -2   2  13   12.64    1.21
   2   2 -13   12.09    0.60
   0  -2 -13   18.18    0.84
   0  -2 -13   19.78    0.91
   0  -2  13   20.18    1.46
   0  -2  13   17.31    1.39
   0   2  13   15.79    1.24
   0   2 -13   18.73    1.02
   0   2 -13   17.79    0.84
   0   2  13   17.18    1.40
  -2  -2 -13   13.45    0.83
   2  -2  13   12.54    1.23
   2  -2  13   11.99    1.20
  -2  -2 -13   14.53    0.82
  -2   2 -13   14.36    0.85
   2   2  13   14.34    1.26
  -2   2 -13   14.12    1.60
   2   2  13   14.53    1.08
  -2   2 -13   13.84    0.93
   4  -2  13  131.93    4.92
  -4  -2 -13  132.12    4.29
  -4  -2 -13  128.62    4.29
   4  -2  13  130.44    4.77
  -4   2 -13  130.49    4.44
   4   2  13  128.52    4.88
  -4   2 -13  129.65    4.99
   6  -2  13   14.27    1.35
  -6  -2 -13   12.05    0.89
  -6  -2 -13   11.96    0.96
   6   2  13   14.32    1.30
  -6   2 -13   13.48    1.96
  -6   2 -13   13.99    1.05
   8  -2  13    1.03    0.80
  -8  -2 -13    0.12    0.37
  -8  -2 -13    0.16    0.45
   8   2  13    0.89    0.74
  -8   2 -13    0.21    0.44
  10  -2  13    6.57    1.09
 -10  -2 -13    4.12    0.63
  10   2  13    5.44    0.96
 -10   2 -13    5.24    0.83
 -12  -2 -13   35.81    1.86
  12  -2  13   37.04    2.43
 -12  -2 -13   37.65    1.99
  12   2  13   38.78    2.41
 -12   2 -13   37.38    2.03
  14  -2  13   14.72    1.89
 -14  -2 -13   15.11    1.34
 -14  -2 -13   15.49    1.62
  14   2  13   15.01    1.85
 -14   2 -13   13.54    1.52
  16  -2  13    0.77    1.23
 -16  -2 -13    1.26    0.99
 -16  -2 -13    1.41    0.80
  16   2  13   -1.09    1.19
 -16   2 -13    1.74    1.00
 -17  -3  13   20.37    3.15
 -17   3  13   12.66    2.35
 -17   3  13   15.83    2.06
 -15  -3  13   75.16    4.02
 -15  -3  13   78.09    4.36
 -15   3  13   70.41    3.86
 -15   3  13   71.89    4.47
 -13  -3  13    9.10    1.46
 -13  -3  13    7.76    1.51
 -13   3  13   10.17    1.52
 -13   3  13    7.40    1.65
 -11  -3  13    4.02    1.13
 -11  -3  13    8.01    1.33
 -11   3  13    5.89    1.12
 -11   3  13    5.43    1.26
  -9  -3  13   36.42    2.52
  -9  -3  13   40.01    2.36
  -9   3  13   37.05    2.45
  -9   3  13   35.64    2.25
   9   3 -13   39.58    1.56
  -7  -3  13  106.99    4.34
  -7  -3  13  108.18    4.57
  -7   3  13  115.88    4.40
  -7   3  13  105.34    4.37
   7   3 -13  109.99    3.64
  -5  -3  13   46.63    2.41
  -5  -3  13   47.74    1.62
   5  -3 -13   49.71    1.71
  -5  -3  13   46.83    2.58
  -5   3  13   46.13    2.37
  -5   3  13   47.01    2.42
   5   3 -13   48.40    1.86
   3  -3 -13    9.13    0.61
  -3  -3  13    7.60    1.06
  -3  -3  13    6.63    1.00
  -3   3  13    7.80    1.04
   3   3 -13    8.27    0.72
  -3   3  13    7.95    1.06
  -1  -3  13  128.43    4.72
   1  -3 -13  129.11    4.16
  -1  -3  13  123.13    4.75
   1   3 -13  126.43    4.19
  -1   3  13  124.23    4.69
   1   3 -13  114.46    4.03
  -1   3  13  126.90    4.47
  -1  -3 -13   61.50    2.18
  -1  -3 -13   56.50    2.20
   1  -3  13   61.54    2.77
   1  -3  13   61.99    2.79
  -1   3 -13   60.56    2.11
   1   3  13   61.21    2.76
  -1   3 -13   59.94    2.33
  -1   3 -13   62.17    2.93
   1   3  13   61.00    2.49
   3  -3  13   28.44    1.79
  -3  -3 -13   29.39    1.33
   3  -3  13   29.10    1.83
  -3  -3 -13   29.50    1.24
   3   3  13   31.59    1.83
   3   3  13   28.49    1.48
  -3   3 -13   30.11    1.47
  -3   3 -13   29.79    2.16
  -5  -3 -13    2.90    0.50
   5  -3  13    3.84    0.78
  -5  -3 -13    3.23    0.52
   5   3  13    2.54    0.69
  -5   3 -13    2.93    0.57
  -5   3 -13    2.41    1.12
  -7  -3 -13   41.57    1.79
  -7  -3 -13   40.25    1.80
   7  -3  13   42.59    2.31
  -7   3 -13   39.84    1.93
   7   3  13   41.56    2.26
  -7   3 -13   43.05    2.78
   9  -3  13   54.60    2.82
  -9  -3 -13   58.73    2.37
  -9  -3 -13   59.94    2.47
   9   3  13   55.00    2.84
  -9   3 -13   53.67    2.45
  -9   3 -13   59.02    4.29
  11  -3  13   57.59    2.99
 -11  -3 -13   61.34    2.54
 -11  -3 -13   60.70    2.61
 -11   3 -13   65.16    2.74
  11   3  13   60.56    3.02
 -13  -3 -13    2.53    0.71
 -13  -3 -13    1.85    0.80
  13  -3  13    1.76    1.02
 -13   3 -13    2.19    0.78
  13   3  13    1.72    0.99
 -15  -3 -13   50.83    2.51
  15  -3  13   57.12    3.18
 -15  -3 -13   55.52    2.73
  15   3  13   55.54    3.16
 -15   3 -13   54.51    2.77
 -16  -4  13    4.75    1.54
 -16  -4  13   -0.33    1.53
 -16   4  13   -0.88    1.78
 -16   4  13   -3.02    1.25
 -14  -4  13    3.04    1.17
 -14  -4  13    3.27    1.35
 -14   4  13    1.68    1.20
 -14   4  13    1.04    1.46
 -12  -4  13   87.03    4.34
 -12  -4  13   91.84    4.17
 -12   4  13   86.86    4.43
 -12   4  13   88.12    4.02
 -10  -4  13  116.09    5.13
 -10  -4  13  117.99    5.19
  10   4 -13  124.86    4.03
 -10   4  13  124.82    5.13
  -8  -4  13    3.82    0.94
  -8  -4  13    2.15    0.93
   8   4 -13    3.73    0.54
  -8   4  13    4.13    0.87
  -8   4  13    3.52    0.88
  -6  -4  13   84.66    3.81
  -6  -4  13   85.01    3.59
   6  -4 -13   86.40    2.80
   6   4 -13   83.84    2.97
  -6   4  13   81.09    3.53
  -6   4  13   81.46    3.49
  -4  -4  13  149.80    5.78
  -4  -4  13  154.37    4.69
   4  -4 -13  157.77    4.84
  -4  -4  13  150.85    5.59
  -4   4  13  154.58    5.43
   4   4 -13  149.24    5.02
  -4   4  13  152.53    5.57
   2  -4 -13   86.77    2.87
  -2  -4  13   83.95    3.53
  -2  -4  13   82.04    3.63
  -2   4  13   85.23    3.50
  -2   4  13   86.77    3.30
   2   4 -13   83.45    3.04
   2   4 -13   85.00    2.69
   0  -4 -13    2.79    0.43
   0  -4  13    2.68    0.79
   0  -4  13    3.03    0.73
   0   4 -13    3.41    0.52
   0   4  13    3.79    0.61
   0   4 -13    2.89    0.91
   0   4  13    2.00    0.61
   0   4 -13    3.61    0.41
   2  -4  13   56.69    2.65
   2  -4  13   56.39    2.64
  -2  -4 -13   55.64    2.07
   2   4  13   56.84    2.62
  -2   4 -13   54.12    2.87
   2   4  13   54.94    2.21
  -2   4 -13   53.44    2.23
  -4  -4 -13   40.08    1.53
   4  -4  13   38.17    2.12
   4  -4  13   40.63    2.20
  -4  -4 -13   40.53    1.68
   4   4  13   40.29    2.16
  -4   4 -13   38.59    1.80
  -4   4 -13   36.62    2.54
  -6  -4 -13   91.92    3.27
  -6  -4 -13   91.02    3.17
   6  -4  13   93.87    3.82
  -6   4 -13   94.42    4.17
  -6   4 -13   91.92    3.44
   6   4  13   88.78    3.76
  -8  -4 -13   32.30    1.61
  -8  -4 -13   31.75    1.92
  -8   4 -13   37.38    2.82
  -8   4 -13   36.20    1.81
   8   4  13   31.34    2.61
 -10  -4 -13   64.96    2.59
  10  -4  13   62.55    3.04
 -10  -4 -13   57.70    2.47
  10   4  13   61.28    2.97
 -10   4 -13   59.35    3.98
 -10   4 -13   59.85    2.65
 -12  -4 -13   87.54    3.37
 -12  -4 -13   80.25    3.26
  12  -4  13   90.68    3.92
 -12   4 -13   84.90    3.51
  12   4  13   86.55    3.84
  14  -4  13   65.46    3.45
 -14  -4 -13   70.39    3.05
 -14  -4 -13   63.54    2.83
  14   4  13   73.65    3.50
 -14   4 -13   66.09    3.08
 -17  -5  13   55.81    4.38
 -17  -5  13   72.92    4.22
 -17   5  13   74.91    5.06
 -17   5  13   63.98    3.87
 -15  -5  13   51.57    3.71
 -15  -5  13   49.02    3.42
 -15   5  13   58.44    4.13
 -15   5  13   47.84    3.23
 -13  -5  13   19.11    2.53
 -13  -5  13   23.11    2.34
 -13   5  13   20.68    2.14
 -13   5  13   23.24    2.84
 -11  -5  13    2.18    1.06
 -11  -5  13   -0.04    1.00
 -11   5  13    2.24    1.20
  11   5 -13    1.12    0.54
 -11   5  13    0.17    0.89
  -9  -5  13  138.50    5.77
  -9  -5  13  141.94    5.86
  -9   5  13  141.28    5.42
   9   5 -13  138.12    4.70
  -9   5  13  148.22    5.60
  -7  -5  13   92.94    4.21
  -7  -5  13   93.89    3.94
   7  -5 -13   98.14    3.16
  -7   5  13   93.63    3.89
  -7   5  13   96.38    3.93
   7   5 -13   90.93    3.32
   5  -5 -13   54.30    1.98
  -5  -5  13   56.15    2.95
  -5  -5  13   55.58    1.88
  -5  -5  13   55.05    2.70
   5   5 -13   52.24    2.15
  -5   5  13   51.33    2.62
  -5   5  13   53.96    2.55
   3  -5 -13    1.29    0.35
  -3  -5  13    0.15    0.25
  -3  -5  13    0.51    0.61
  -3  -5  13    0.04    0.64
   3   5 -13    0.28    0.38
  -3   5  13    0.88    0.54
  -3   5  13    0.68    0.57
  -1  -5  13  166.51    5.80
  -1  -5  13  156.38    5.90
   1  -5 -13  158.73    5.10
   1   5 -13  161.86    5.32
   1   5 -13  153.61    5.82
  -1   5  13  160.53    5.35
  -1   5  13  160.11    5.73
   1   5 -13  155.99    4.90
   1  -5  13  186.54    6.55
   1  -5  13  187.17    6.69
  -1  -5 -13  187.18    5.95
  -1   5 -13  186.02    6.15
   1   5  13  193.87    6.03
  -1   5 -13  181.28    6.77
   1   5  13  182.90    6.52
  -3  -5 -13   13.69    0.90
   3  -5  13   13.05    1.37
   3  -5  13   12.87    1.39
   3   5  13   12.76    1.32
  -3   5 -13   12.85    1.81
  -3   5 -13   13.64    1.02
  -5  -5 -13    1.09    0.42
  -5  -5 -13    1.16    0.43
   5  -5  13    1.20    0.67
   5   5  13    0.46    0.53
  -5   5 -13    0.55    0.43
  -5   5 -13   -0.11    1.10
   7  -5  13   68.16    3.13
  -7  -5 -13   65.56    2.58
  -7  -5 -13   68.07    2.44
  -7   5 -13   68.81    3.57
   7   5  13   62.30    3.18
  -7   5 -13   61.96    2.82
   9  -5  13  136.58    5.46
  -9  -5 -13  145.12    4.86
  -9  -5 -13  141.22    4.95
   9   5  13  144.36    5.49
  -9   5 -13  157.82    6.13
  -9   5 -13  146.33    5.16
 -11  -5 -13   29.85    1.70
  11  -5  13   27.48    2.15
 -11  -5 -13   26.66    1.59
 -11   5 -13   21.21    2.74
 -11   5 -13   30.20    1.81
  11   5  13   26.69    2.08
 -13  -5 -13    2.35    0.85
 -13  -5 -13    2.79    0.70
  13  -5  13    0.74    1.10
 -13   5 -13    2.18    0.84
  13   5  13    0.67    1.04
 -15  -5 -13   29.75    1.90
  15  -5  13   29.00    2.55
 -15  -5 -13   33.56    2.21
  15   5  13   32.12    2.47
 -15   5 -13   32.80    2.23
 -16  -6  13    2.97    1.63
 -16  -6  13    0.51    1.72
 -16   6  13    0.53    1.95
 -16   6  13   -1.65    1.31
 -14  -6  13   22.66    2.65
 -14  -6  13   20.14    2.81
 -14   6  13   21.90    2.33
 -14   6  13   24.18    3.21
 -12  -6  13  143.29    5.66
 -12  -6  13  125.40    5.86
 -12   6  13  136.94    5.49
 -12   6  13  134.72    5.92
  12   6 -13  143.61    4.70
 -10  -6  13   70.36    3.50
 -10  -6  13   77.50    3.88
  10   6 -13   73.65    2.83
 -10   6  13   72.99    3.41
 -10   6  13   73.51    3.68
  -8  -6  13    1.16    0.88
  -8  -6  13    1.32    0.87
   8   6 -13   -0.22    0.44
  -8   6  13   -0.10    0.81
  -8   6  13    0.33    0.65
  -6  -6  13   46.30    2.52
  -6  -6  13   46.77    2.77
  -6  -6  13   48.86    1.76
   6  -6 -13   49.09    1.85
   6   6 -13   44.64    2.34
  -6   6  13   46.83    2.37
  -6   6  13   44.84    2.42
  -4  -6  13  110.99    4.75
  -4  -6  13  119.56    3.69
   4  -6 -13  119.58    3.84
  -4  -6  13  115.10    4.51
   4   6 -13  111.77    4.03
  -4   6  13  116.58    4.46
  -4   6  13  115.76    4.23
  -2  -6  13  104.09    4.35
   2  -6 -13  106.39    3.50
  -2  -6  13  104.71    4.13
  -2   6  13  105.83    3.73
   2   6 -13  101.26    3.71
  -2   6  13   99.92    4.05
   0  -6  13   14.83    1.37
   0  -6  13   14.62    1.52
   0  -6 -13   11.85    0.85
   0   6  13   10.41    1.14
   0   6  13   12.58    1.25
   0   6 -13   13.25    1.02
   0   6 -13   12.60    1.56
   2  -6  13   50.19    2.47
  -2  -6 -13   47.49    1.91
   2  -6  13   45.07    2.49
  -2   6 -13   47.68    2.11
   2   6  13   48.88    2.41
  -2   6 -13   49.10    2.83
  -4  -6 -13  137.49    4.64
   4  -6  13  139.46    5.28
   4  -6  13  137.52    5.17
  -4   6 -13  138.37    4.85
   4   6  13  140.08    5.16
  -4   6 -13  139.28    5.51
   6  -6  13  169.27    6.06
  -6  -6 -13  169.16    5.53
   6   6  13  159.54    5.99
  -6   6 -13  168.18    6.46
  -6   6 -13  165.34    5.76
  -8  -6 -13   -0.21    0.57
  -8  -6 -13    0.46    0.46
   8  -6  13    1.35    0.77
   8   6  13   -0.57    0.68
  -8   6 -13   -1.28    1.25
  -8   6 -13   -0.42    0.49
  10  -6  13   78.66    3.48
 -10  -6 -13   72.83    2.95
 -10  -6 -13   74.60    2.92
  10   6  13   68.77    3.37
 -10   6 -13   76.05    3.16
 -10   6 -13   80.00    4.34
 -12  -6 -13   49.16    2.39
  12  -6  13   50.15    2.86
 -12  -6 -13   46.13    2.24
 -12   6 -13   47.47    2.45
  12   6  13   48.13    2.80
 -14  -6 -13   28.90    2.13
 -14  -6 -13   25.54    1.77
  14  -6  13   29.27    2.78
  14   6  13   24.79    2.29
 -14   6 -13   27.00    2.06
 -15  -7  13   55.20    3.97
 -15  -7  13   54.79    3.68
 -15   7  13   55.03    3.39
 -15   7  13   57.79    4.43
 -13  -7  13    8.82    1.63
 -13  -7  13    6.25    1.57
  13   7 -13    7.01    0.99
 -13   7  13    5.20    1.36
 -13   7  13    8.93    1.85
 -11  -7  13   19.89    2.39
 -11  -7  13   16.94    2.05
 -11   7  13   19.43    2.77
  11   7 -13   18.23    1.45
 -11   7  13   20.41    1.92
  -9  -7  13   19.75    1.90
  -9  -7  13   18.60    2.16
   9   7 -13   18.79    1.51
  -9   7  13   20.45    2.08
  -9   7  13   19.97    2.34
  -7  -7  13   80.26    2.69
  -7  -7  13   73.96    3.46
  -7  -7  13   75.40    3.78
   7  -7 -13   77.53    2.74
  -7   7  13   72.55    3.35
   7   7 -13   75.57    2.95
  -7   7  13   76.54    3.35
   5  -7 -13   20.42    1.13
  -5  -7  13   21.94    1.79
  -5  -7  13   14.37    2.15
  -5  -7  13   18.85    0.96
  -5   7  13   19.85    1.51
   5   7 -13   20.35    1.30
  -5   7  13   21.96    1.60
   3  -7 -13    0.68    0.39
  -3  -7  13    0.66    0.29
  -3  -7  13    0.09    0.74
  -3  -7  13    0.17    0.69
   3   7 -13    0.13    0.44
  -3   7  13    0.39    0.58
  -3   7  13    0.90    0.62
  -1  -7  13   59.17    2.81
   1  -7 -13   56.70    2.20
  -1  -7  13   58.64    2.98
   1   7 -13   62.05    3.24
   1   7 -13   55.86    2.41
  -1   7  13   58.18    2.69
   1  -7  13  113.32    4.57
   1  -7  13  110.75    4.55
  -1  -7 -13  115.80    3.85
   1   7  13  112.91    4.34
  -1   7 -13  112.85    4.75
  -1   7 -13  109.73    4.05
   3  -7  13   34.71    2.22
   3  -7  13   39.39    2.20
  -3  -7 -13   38.80    1.69
  -3   7 -13   38.16    2.71
   3   7  13   38.11    2.10
  -3   7 -13   36.57    1.89
  -5  -7 -13   16.46    1.19
   5  -7  13   15.57    1.61
  -5   7 -13   14.95    1.24
   5   7  13   16.92    1.48
  -5   7 -13   17.93    2.25
   7  -7  13   74.39    3.76
  -7  -7 -13   76.74    2.91
   7   7  13   74.85    3.42
  -7   7 -13   78.03    3.13
  -7   7 -13   74.02    4.04
   9  -7  13   30.86    2.13
  -9  -7 -13   29.75    1.62
  -9   7 -13   28.59    1.78
   9   7  13   26.66    1.99
  -9   7 -13   30.35    3.04
 -11  -7 -13   20.68    1.43
  11  -7  13   21.00    2.11
  11   7  13   15.19    1.89
 -11   7 -13   19.00    1.62
 -11   7 -13   19.21    2.50
 -13  -7 -13    2.33    0.79
  13  -7  13    2.72    1.25
 -13   7 -13    1.81    0.84
  13   7  13    2.08    1.09
 -14  -8  13   10.67    2.05
 -14  -8  13   11.94    1.98
  14   8 -13   11.93    1.64
 -14   8  13   13.86    1.85
 -14   8  13   14.71    2.34
 -12  -8  13   31.12    2.66
 -12  -8  13   26.82    2.78
 -12   8  13   28.16    2.97
  12   8 -13   25.22    1.78
 -12   8  13   23.02    2.26
 -10  -8  13   33.84    1.64
 -10  -8  13   33.43    2.78
 -10  -8  13   33.55    2.47
  10   8 -13   31.10    1.83
 -10   8  13   32.87    2.33
 -10   8  13   32.93    2.64
  -8  -8  13    3.18    1.37
  -8  -8  13    3.29    0.52
  -8  -8  13    1.69    1.05
   8   8 -13    2.09    0.68
  -8   8  13    2.78    1.01
  -8   8  13    2.45    1.05
  -6  -8  13   59.77    3.06
  -6  -8  13   55.27    3.28
  -6  -8  13   66.27    2.29
   6  -8 -13   65.28    2.39
  -6   8  13   60.28    2.93
  -6   8  13   63.06    2.90
  -4  -8  13   80.82    2.65
   4  -8 -13   82.47    2.83
  -4  -8  13   78.65    3.44
  -4  -8  13   74.70    3.68
   4   8 -13   71.96    3.19
  -4   8  13   75.29    3.31
   2  -8 -13    0.82    0.40
  -2  -8  13    0.73    0.74
  -2   8  13    0.58    0.66
   2   8 -13   -0.38    1.31
   2   8 -13    0.32    0.49
   0  -8  13    0.32    0.70
   0  -8 -13    0.17    0.40
   0   8 -13    2.07    1.26
   0   8 -13    0.37    0.71
   0   8  13   -0.85    0.62
   2  -8  13    3.62    0.97
   2  -8  13    4.34    0.96
  -2  -8 -13    3.48    0.56
  -2   8 -13    3.43    1.25
   2   8  13    3.51    0.81
  -2   8 -13    2.44    0.65
   4  -8  13   49.33    2.59
   4  -8  13   48.80    2.75
   4   8  13   51.39    2.53
  -4   8 -13   49.53    2.29
  -4   8 -13   48.63    3.18
  -6  -8 -13   33.00    1.69
  -6   8 -13   33.15    1.84
  -6   8 -13   37.22    2.93
   8  -8  13    0.47    0.90
  -8  -8 -13   -0.75    0.52
   8   8  13    2.57    0.89
  -8   8 -13   -0.57    1.51
  -8   8 -13    0.33    0.61
  10  -8  13    7.30    1.34
 -10  -8 -13   10.05    1.16
 -10   8 -13    9.37    2.03
  10   8  13    8.93    1.31
 -10   8 -13    7.37    1.01
 -12  -8 -13   57.21    2.62
  12  -8  13   61.86    3.35
 -12   8 -13   58.90    2.90
 -12   8 -13   63.36    4.71
  12   8  13   57.04    3.14
 -13  -9  13    1.83    1.55
 -13  -9  13    2.98    1.54
  13   9 -13    2.35    0.98
 -13   9  13    3.18    1.36
 -11  -9  13    1.49    1.34
 -11  -9  13    0.52    1.25
 -11  -9  13   -0.01    0.62
 -11   9  13   -0.45    1.00
  11   9 -13    1.42    0.78
  -9  -9  13    3.60    1.27
  -9  -9  13    3.53    0.63
  -9  -9  13    1.78    1.19
  -9   9  13    1.99    1.01
   9   9 -13    2.65    0.75
  -7  -9  13   23.83    1.23
  -7  -9  13   17.84    2.16
   7  -9 -13   24.37    1.40
  -7   9  13   19.58    1.82
   7   9 -13   21.22    1.53
  -5  -9  13   24.08    2.22
  -5  -9  13   29.04    2.11
   5  -9 -13   27.09    1.44
  -5  -9  13   26.93    1.24
  -5   9  13   24.64    1.85
   5   9 -13   25.52    1.61
  -3  -9  13   10.24    1.33
   3  -9 -13   12.54    1.01
  -3  -9  13    9.92    1.40
  -3  -9  13   12.20    0.93
  -3   9  13   11.93    1.40
   3   9 -13   10.69    1.16
  -1  -9  13   10.83    1.53
   1  -9 -13   12.07    0.97
  -1  -9  13    9.50    1.43
  -1   9  13   11.40    1.37
   1   9 -13   11.95    1.80
   1   9 -13   10.50    1.13
   1  -9  13   12.08    1.55
   1  -9  13   12.55    1.58
  -1  -9 -13   11.32    1.07
  -1   9 -13   12.41    1.82
  -1   9 -13   10.19    1.15
   1   9  13   11.33    1.38
   3  -9  13   10.71    1.49
   3  -9  13    8.33    1.20
  -3  -9 -13    7.46    0.95
  -3   9 -13    7.11    1.48
   3   9  13   10.05    1.32
  -3   9 -13    6.65    1.00
  -5  -9 -13    2.33    0.60
   5  -9  13    2.85    1.02
  -5   9 -13    3.44    1.48
  -5   9 -13    2.26    0.65
   5   9  13    3.76    1.40
   7  -9  13    0.15    1.07
  -7  -9 -13   -0.24    0.49
   7   9  13    1.59    0.94
  -7   9 -13    1.07    0.65
  -7   9 -13    2.29    1.53
   9  -9  13    9.97    1.44
  -9  -9 -13    8.46    1.17
   9   9  13    9.06    1.30
  -9   9 -13    8.72    1.12
  -9   9 -13   11.02    2.13
  11  -9  13   16.22    2.28
 -11  -9 -13   17.71    1.50
  11   9  13   18.78    2.12
 -11   9 -13   14.25    2.48
 -11   9 -13   16.24    1.66
 -12 -10  13    1.49    1.57
 -12 -10  13    0.17    1.54
 -12 -10  13    2.10    0.78
 -12  10  13    0.51    1.19
  12  10 -13    0.80    0.95
 -10 -10  13    1.53    1.39
 -10 -10  13    2.82    1.44
 -10 -10  13    5.51    0.80
 -10  10  13    3.26    1.15
  10  10 -13    3.68    0.94
  -8 -10  13    1.29    1.13
  -8 -10  13    0.77    1.16
  -8 -10  13    1.11    0.54
   8  10 -13    0.47    0.67
  -8  10  13   -0.55    0.94
  -6 -10  13    9.33    1.61
  -6 -10  13    9.82    0.93
   6  10 -13    7.67    1.02
  -6  10  13    8.10    1.22
  -4 -10  13    0.64    0.45
  -4 -10  13    0.30    0.98
  -4 -10  13    1.37    0.98
  -4  10  13    0.86    0.79
   4  10 -13   -0.20    0.57
  -2 -10  13    0.39    0.97
  -2 -10  13    0.40    0.90
   2 -10 -13    0.47    0.75
   2  10 -13    0.46    0.58
  -2  10  13   -0.33    0.75
   2  10 -13    1.84    1.91
   0 -10 -13   -0.03    0.47
   0 -10  13    1.26    0.89
   0 -10  13    0.29    0.88
   0  10 -13    1.12    0.57
   0  10 -13    2.22    1.58
   0  10  13   -0.60    0.74
   2 -10  13    3.11    1.04
  -2 -10 -13    3.34    0.64
   2 -10  13    3.11    0.89
  -2  10 -13    2.21    0.65
   2  10  13    2.12    0.84
  -2  10 -13    3.13    1.55
   4 -10  13   11.78    1.48
  -4 -10 -13   10.85    1.09
   4  10  13   10.78    1.39
  -4  10 -13   12.15    1.28
  -4  10 -13   13.13    1.94
   6 -10  13   -0.11    1.05
  -6 -10 -13    0.24    0.55
  -6  10 -13    0.34    0.63
  -6  10 -13    2.55    1.59
   6  10  13    1.50    0.94
   8 -10  13   -0.89    1.07
  -8 -10 -13    0.66    0.62
  -8  10 -13    1.50    1.69
  -8  10 -13    0.12    0.68
   8  10  13    0.29    1.01
 -10 -10 -13    0.98    0.68
  10 -10  13   -1.93    1.25
 -10  10 -13    0.16    0.80
 -10  10 -13    3.52    1.89
  10  10  13    2.04    1.17
 -11 -11  13    2.27    2.14
 -11 -11  13    0.03    0.73
 -11 -11  13   -1.25    1.48
  11  11 -13    0.15    0.96
  -9 -11  13   10.33    1.73
  -9 -11  13    4.67    1.47
  -9 -11  13    6.49    0.84
   9  11 -13    7.05    1.17
  -9  11  13    6.79    1.56
  -7 -11  13   35.81    2.73
  -7 -11  13   32.78    1.91
  -7 -11  13   32.08    2.79
   7 -11 -13   38.17    1.96
   7  11 -13   32.54    2.07
  -7  11  13   37.27    2.31
   5 -11 -13    0.81    0.62
  -5 -11  13   -0.57    1.03
  -5 -11  13    1.26    1.88
   5  11 -13    0.58    0.70
  -5  11  13    1.46    0.92
  -3 -11  13   35.07    2.76
   3 -11 -13   38.67    1.91
  -3 -11  13   44.32    2.66
   3  11 -13   40.96    2.16
  -3  11  13   42.27    2.35
  -1 -11  13   -0.32    1.05
  -1 -11  13   -0.20    0.90
   1 -11 -13    0.93    0.57
  -1  11  13    0.16    0.82
   1  11 -13    1.19    1.68
   1  11 -13   -0.94    0.59
   1 -11  13    4.63    1.22
  -1 -11 -13    4.71    0.74
   1 -11  13    2.94    0.98
  -1  11 -13    4.22    0.81
  -1  11 -13    8.15    1.93
   1  11  13    4.39    1.00
  -3 -11 -13   12.25    1.18
   3 -11  13   13.26    1.56
  -3  11 -13   14.75    3.07
   3  11  13   10.25    1.41
  -3  11 -13    9.03    1.27
  -5 -11 -13    0.28    0.56
   5 -11  13    0.07    1.16
  -5  11 -13   -1.13    1.50
  -5  11 -13   -0.81    0.62
   5  11  13    3.33    0.99
  -7 -11 -13    1.28    0.70
   7  11  13    2.21    1.02
  -7  11 -13    1.72    0.80
  -7  11 -13    0.01    1.72
  -9 -11 -13    9.28    1.30
  -9  11 -13    7.04    1.15
  -9  11 -13    7.05    2.18
   9  11  13    9.19    1.42
 -10 -12  13    2.57    1.05
 -10 -12  13    1.23    1.57
  10  12 -13   -1.00    0.97
  -8 -12  13   13.79    2.05
  -8 -12  13   17.29    1.91
   8  12 -13   13.39    1.70
   6 -12 -13    3.60    0.85
  -6 -12  13    5.69    1.46
   6  12 -13    3.05    0.91
  -4 -12  13   44.60    3.15
   4 -12 -13   47.49    2.22
   4  12 -13   44.36    2.43
  -2 -12  13    3.68    1.14
   2 -12 -13    4.21    0.78
   2  12 -13    2.75    0.85
   0 -12 -13    1.32    0.63
   0 -12  13    0.41    0.95
   0  12 -13    2.55    0.76
   0  12 -13    1.49    2.82
  -2 -12 -13    3.67    0.73
  -2  12 -13    5.70    2.01
  -2  12 -13    3.56    0.87
  -4 -12 -13   29.50    1.76
  -4  12 -13   29.43    1.99
  -4  12 -13   31.64    3.44
  -6 -12 -13    2.38    0.72
  -6  12 -13    3.63    0.87
  -6  12 -13    2.63    1.79
  -8 -12 -13    2.14    0.81
  -8  12 -13    0.01    1.87
  -8  12 -13    0.33    0.87
  -7 -13  13   36.91    3.21
   7  13 -13   26.83    2.17
   5 -13 -13    2.23    0.87
  -5 -13  13    1.59    1.47
   5  13 -13    2.86    0.95
  -3 -13  13    4.50    1.28
   3 -13 -13    1.98    0.79
   3  13 -13    3.60    0.89
   1 -13 -13   17.77    1.54
  -1 -13  13   23.56    2.40
   1  13 -13   21.54    1.81
   1 -13  13   28.60    2.52
  -1 -13 -13   24.84    1.72
  -1  13 -13   22.74    2.88
  -1  13 -13   30.92    1.99
  -3 -13 -13   22.94    1.67
  -3  13 -13   23.27    3.52
  -3  13 -13   27.67    1.93
  -5 -13 -13    0.68    0.73
  -5  13 -13    0.54    0.83
  -5  13 -13   -3.55    1.81
  -4 -14  13   29.16    2.89
   4 -14 -13   28.26    1.90
   4  14 -13   27.50    2.22
  -2 -14  13   98.95    4.93
   2 -14 -13  105.74    4.02
  -2  14  13  110.28    3.55
   2  14 -13  102.29    4.29
   0 -14 -13   12.69    1.47
   0 -14  13   13.83    1.98
   0  14 -13   12.06    1.64
  -2 -14 -13   38.25    2.22
  -2  14 -13   43.23    2.48
  -2  14 -13   48.70    6.07
 -16   0  14   17.85    2.59
 -16   0  14   20.08    2.80
 -14   0  14   64.18    3.68
 -14   0  14   59.79    4.06
 -12   0  14   40.89    2.76
 -12   0  14   39.52    3.04
 -10   0  14    0.12    0.98
 -10   0  14   -0.33    0.81
  -8   0  14    1.34    0.80
  -6   0  14   43.22    2.45
  -6   0  14   46.39    2.58
  -4   0  14  267.91    8.97
  -4   0  14  258.28    8.94
  -2   0  14   17.19    1.48
   2   0 -14   18.95    0.92
  -2   0  14   16.75    1.49
   2   0 -14   17.63    0.85
   0   0 -14   55.76    1.97
   0   0  14   56.49    2.59
   0   0  14   53.24    2.68
   0   0 -14   55.95    2.05
   2   0  14  102.42    4.10
   2   0  14   99.80    3.85
  -2   0 -14   99.12    3.45
  -2   0 -14  102.05    3.38
   4   0  14   34.85    1.89
  -4   0 -14   36.70    1.55
   4   0  14   34.51    2.10
  -4   0 -14   35.05    1.62
  -6   0 -14   24.05    1.28
  -6   0 -14   24.19    1.36
  -8   0 -14    4.65    0.81
   8   0  14    4.75    1.01
 -10   0 -14   13.44    1.29
  10   0  14   14.59    1.74
 -10   0 -14   13.09    1.15
  12   0  14   87.61    4.02
 -12   0 -14   86.79    3.53
  14   0  14   82.76    3.96
 -14   0 -14   83.04    3.52
 -14   0 -14   78.88    3.30
 -17  -1  14   43.24    3.76
 -17  -1  14   42.30    4.01
 -17   1  14   34.69    3.99
 -17   1  14   38.15    3.51
 -15  -1  14   44.51    3.32
 -15  -1  14   40.00    3.55
 -15   1  14   44.40    3.17
 -15   1  14   41.88    3.61
 -13  -1  14    2.23    1.14
 -13  -1  14    0.01    1.21
 -13   1  14   -0.40    1.14
 -13   1  14   -0.61    1.22
 -11  -1  14   85.59    3.95
 -11  -1  14   76.25    4.03
 -11   1  14   79.88    4.07
 -11   1  14   80.85    3.85
  -9  -1  14  173.88    8.04
  -9  -1  14  172.46    6.52
  -9   1  14  171.25    6.67
  -9   1  14  182.67    6.57
  -7  -1  14   29.74    2.04
  -7  -1  14   30.93    2.20
  -7   1  14   29.96    2.04
  -7   1  14   27.21    2.10
  -5  -1  14    3.17    0.85
  -5  -1  14    1.39    0.75
   5   1 -14    2.58    0.40
  -5   1  14    1.56    0.70
  -5   1  14    2.87    0.78
   3  -1 -14   95.64    3.04
  -3  -1  14   95.45    3.95
  -3  -1  14   94.43    3.88
  -3   1  14   94.47    3.84
  -3   1  14   91.75    3.87
   3   1 -14   92.73    3.13
   1  -1 -14  123.57    3.96
   1  -1 -14  128.53    4.02
  -1  -1  14  128.29    4.84
  -1  -1  14  127.39    4.78
   1   1 -14  120.86    3.96
   1   1 -14  123.30    4.12
  -1   1  14  123.95    4.82
  -1   1  14  129.37    4.69
   1  -1  14   42.76    2.33
  -1  -1 -14   43.02    1.71
  -1  -1 -14   44.56    1.73
   1  -1  14   46.91    2.32
   1   1  14   45.89    2.38
  -1   1 -14   44.48    1.69
  -1   1 -14   46.39    1.84
   1   1  14   46.98    2.23
   3  -1  14    6.41    1.01
  -3  -1 -14    6.82    0.76
   3  -1  14    6.36    0.92
  -3  -1 -14    5.22    0.68
  -3   1 -14    5.55    0.68
   3   1  14    6.58    0.99
  -3   1 -14    6.07    0.78
   3   1  14    5.98    0.96
  -5  -1 -14   99.48    3.38
   5  -1  14   97.91    4.03
  -5  -1 -14   97.41    3.42
  -5   1 -14   96.84    3.36
  -5   1 -14   96.52    3.77
   5   1  14   91.83    3.96
  -7  -1 -14  168.36    5.47
  -7  -1 -14  158.42    5.39
   7  -1  14  162.99    6.05
   7   1  14  161.41    6.03
  -7   1 -14  165.33    5.54
  -9  -1 -14   46.10    2.04
  -9  -1 -14   45.12    2.13
   9  -1  14   45.38    2.59
   9   1  14   45.78    2.60
  -9   1 -14   46.50    2.18
 -11  -1 -14    5.48    0.79
  11  -1  14    6.27    1.14
 -11  -1 -14    4.91    0.88
  11   1  14    5.04    1.04
 -11   1 -14    4.19    0.84
 -13  -1 -14   36.07    1.98
  13  -1  14   39.21    2.60
 -13  -1 -14   38.90    2.23
  13   1  14   35.10    2.59
 -13   1 -14   38.17    2.20
 -16  -2  14   12.20    2.17
 -16  -2  14   12.90    2.09
 -16   2  14   14.05    2.07
 -16   2  14   15.75    2.38
 -14  -2  14   55.62    3.84
 -14  -2  14   56.91    3.46
 -14   2  14   54.93    3.42
 -14   2  14   56.38    3.86
 -12  -2  14   31.53    2.79
 -12  -2  14   29.75    2.46
 -12   2  14   28.32    2.75
 -12   2  14   32.16    2.47
 -10  -2  14    1.12    1.00
 -10  -2  14    2.89    1.00
 -10   2  14    3.19    1.40
 -10   2  14    2.31    0.89
  -8  -2  14   17.87    1.90
  -8   2  14   17.43    1.76
  -8   2  14   12.84    2.23
  -6  -2  14   49.95    2.80
  -6  -2  14   53.34    2.72
   6   2 -14   52.32    1.91
  -6   2  14   52.39    2.70
  -6   2  14   51.99    2.72
   4  -2 -14   56.77    1.94
  -4  -2  14   55.64    2.76
  -4  -2  14   57.11    2.89
  -4   2  14   57.14    2.77
  -4   2  14   54.35    2.68
   4   2 -14   55.49    2.08
  -2  -2  14   18.69    1.58
  -2  -2  14   21.26    1.63
   2  -2 -14   21.12    0.96
   2   2 -14   19.82    1.09
  -2   2  14   18.68    1.56
  -2   2  14   18.43    1.49
   0  -2  14   22.24    1.62
   0  -2 -14   19.87    0.99
   0  -2  14   16.87    1.54
   0   2  14   20.10    1.43
   0   2  14   20.28    1.60
   0   2 -14   19.87    1.12
   0   2 -14   20.72    0.96
   2  -2  14   83.74    3.60
  -2  -2 -14   87.57    2.88
   2  -2  14   86.44    3.50
  -2  -2 -14   84.62    2.94
   2   2  14   83.72    3.59
  -2   2 -14   82.96    3.07
   2   2  14   85.56    3.30
  -2   2 -14   84.64    2.90
  -4  -2 -14   62.70    2.30
   4  -2  14   60.09    2.76
  -4  -2 -14   62.21    2.31
   4  -2  14   62.52    2.94
   4   2  14   58.47    2.86
  -4   2 -14   60.30    2.43
  -4   2 -14   59.48    2.26
   6  -2  14    6.39    1.14
  -6  -2 -14    5.44    0.77
  -6  -2 -14    5.54    0.69
  -6   2 -14    6.58    0.94
   6   2  14    5.24    1.07
  -8  -2 -14    3.04    0.68
   8  -2  14    2.96    0.85
  -8  -2 -14    3.23    0.64
   8   2  14    3.64    0.87
  -8   2 -14    4.27    0.75
 -10  -2 -14   63.82    2.64
  10  -2  14   64.83    3.26
 -10  -2 -14   61.23    2.70
 -10   2 -14   68.06    2.83
  10   2  14   65.00    3.21
  12  -2  14   58.80    3.16
 -12  -2 -14   62.01    2.69
 -12  -2 -14   52.84    2.47
  12   2  14   55.44    3.06
 -12   2 -14   55.33    2.68
  14  -2  14    6.95    1.45
 -14  -2 -14    6.33    0.94
 -14  -2 -14    9.31    1.21
 -14   2 -14    6.31    1.12
  14   2  14    5.28    1.35
 -15  -3  14   47.91    3.68
 -15  -3  14   40.44    3.21
 -15   3  14   41.96    3.15
 -15   3  14   44.46    3.77
 -13  -3  14    1.32    1.31
 -13  -3  14    2.19    1.26
 -13   3  14    1.77    1.37
 -13   3  14   -1.05    1.02
 -11  -3  14   29.16    2.37
 -11  -3  14   29.36    2.66
 -11   3  14   30.70    2.63
 -11   3  14   31.50    2.33
  -9  -3  14  141.53    5.42
  -9  -3  14  124.77    5.56
  -9   3  14  137.78    5.52
  -9   3  14  137.90    5.38
  -7  -3  14   23.04    2.13
  -7  -3  14   28.46    2.17
   7   3 -14   27.30    1.29
  -7   3  14   25.39    1.94
  -7   3  14   27.87    2.04
  -5  -3  14   24.85    2.00
   5  -3 -14   26.38    1.14
  -5  -3  14   25.41    1.89
   5   3 -14   25.16    1.26
  -5   3  14   25.03    1.79
  -5   3  14   25.72    1.88
  -3  -3  14   18.19    1.65
  -3  -3  14   15.03    1.49
   3  -3 -14   15.74    0.87
  -3   3  14   16.28    1.50
   3   3 -14   16.60    1.02
  -3   3  14   17.49    1.44
   1  -3 -14   24.21    1.13
  -1  -3  14   23.68    1.77
  -1  -3  14   25.12    1.80
  -1   3  14   25.76    1.60
   1   3 -14   23.89    1.26
   1   3 -14   24.33    1.05
  -1   3  14   23.19    1.73
   1  -3  14   97.84    3.97
  -1  -3 -14   94.36    3.25
   1  -3  14   94.83    3.93
  -1   3 -14   94.70    3.17
   1   3  14   98.24    3.95
  -1   3 -14   95.65    3.42
   1   3  14   97.15    3.59
  -3  -3 -14    0.92    0.39
   3  -3  14    0.95    0.64
  -3  -3 -14    0.86    0.39
   3  -3  14    0.68    0.62
  -3   3 -14    1.60    0.48
   3   3  14    0.75    0.66
   5  -3  14   49.29    2.82
  -5  -3 -14   53.72    2.05
  -5  -3 -14   52.07    2.09
  -5   3 -14   54.11    2.26
   5   3  14   50.00    3.19
   7  -3  14  104.25    4.21
  -7  -3 -14  103.70    3.56
  -7  -3 -14   93.47    3.78
   7   3  14   97.52    4.16
  -7   3 -14  100.48    3.73
   9  -3  14   25.39    2.00
  -9  -3 -14   27.67    1.53
  -9  -3 -14   28.07    2.18
  -9   3 -14   28.33    1.68
   9   3  14   23.84    1.99
 -11  -3 -14    7.98    1.00
 -11  -3 -14   10.91    1.13
  11  -3  14    7.88    1.35
  11   3  14    9.37    1.31
 -11   3 -14    7.09    0.98
  13  -3  14   46.95    2.90
 -13  -3 -14   41.96    2.39
 -13  -3 -14   44.95    2.20
 -13   3 -14   42.19    2.40
  13   3  14   44.48    2.82
 -16  -4  14   12.66    2.17
 -16  -4  14   21.98    3.24
 -16   4  14   18.23    2.59
 -16   4  14   14.96    1.98
 -14  -4  14    2.39    1.45
 -14  -4  14    4.34    1.56
 -14   4  14    6.29    1.46
 -14   4  14    4.02    1.74
 -12  -4  14    0.22    1.13
 -12  -4  14    1.60    1.19
 -12   4  14    1.09    0.98
 -12   4  14    0.32    1.32
 -10  -4  14    3.55    1.05
 -10  -4  14    1.82    1.13
  10   4 -14    3.02    0.75
 -10   4  14    4.82    1.10
 -10   4  14    2.36    1.18
  -8  -4  14    7.62    1.28
  -8  -4  14   10.23    1.53
   8   4 -14    7.65    0.92
  -8   4  14   10.26    1.61
  -8   4  14   10.26    1.50
  -6  -4  14   26.71    2.23
  -6  -4  14   29.82    2.08
  -6   4  14   27.71    2.01
   6   4 -14   28.74    1.42
  -6   4  14   32.20    2.02
  -4  -4  14   12.53    1.48
   4  -4 -14   12.61    0.83
  -4  -4  14   11.14    1.56
   4   4 -14   11.89    0.96
  -4   4  14    8.92    1.29
  -4   4  14   13.05    1.36
  -2  -4  14   14.10    1.57
   2  -4 -14   16.56    0.92
  -2  -4  14   16.16    1.53
  -2   4  14   13.25    1.42
  -2   4  14   16.96    1.36
   2   4 -14   14.96    1.04
   0  -4  14    4.36    0.91
   0  -4 -14    3.79    0.52
   0  -4  14    3.33    0.87
   0   4  14    3.69    0.71
   0   4 -14    3.33    0.56
   0   4 -14    3.86    0.46
   0   4  14    4.25    0.87
  -2  -4 -14   71.58    2.61
   2  -4  14   70.64    3.21
   2  -4  14   71.93    3.25
  -2   4 -14   70.17    2.79
   2   4  14   75.36    2.79
   2   4  14   72.79    3.23
   4  -4  14    0.29    0.72
   4  -4  14    0.96    0.66
  -4  -4 -14    0.83    0.64
  -4  -4 -14    0.83    0.39
  -4   4 -14    1.57    0.52
   4   4  14    0.84    0.70
  -6  -4 -14    3.40    0.59
   6  -4  14    2.66    0.82
  -6  -4 -14    2.48    0.55
  -6   4 -14    2.52    0.61
   6   4  14    2.48    0.83
  -8  -4 -14   10.06    1.00
  -8  -4 -14    9.83    1.10
   8  -4  14    7.68    1.17
  -8   4 -14    8.39    1.13
   8   4  14    6.97    1.12
 -10  -4 -14    0.41    0.55
 -10  -4 -14    1.11    0.71
  10  -4  14    0.67    0.94
  10   4  14    1.17    0.85
 -10   4 -14    0.65    0.64
 -12  -4 -14   27.14    1.71
  12  -4  14   26.49    2.35
 -12  -4 -14   28.54    1.93
  12   4  14   28.73    2.28
 -12   4 -14   28.18    1.91
 -14  -4 -14    1.71    0.75
  14  -4  14    0.25    1.23
 -14  -4 -14    1.74    0.98
 -14   4 -14    1.59    0.96
  14   4  14    1.68    1.20
 -15  -5  14    1.70    1.58
 -15  -5  14    4.27    1.67
 -15   5  14   -2.12    1.73
 -15   5  14    2.93    1.40
 -13  -5  14    1.54    1.32
 -13  -5  14    3.43    1.50
 -13   5  14    0.35    1.50
 -13   5  14    2.43    1.20
 -11  -5  14    3.42    1.17
 -11  -5  14    2.16    1.11
 -11   5  14    2.27    1.08
 -11   5  14    0.51    1.23
  -9  -5  14    1.18    0.91
  -9  -5  14   -1.27    0.94
   9   5 -14    0.02    0.52
  -9   5  14    0.24    0.98
  -9   5  14    0.08    0.80
  -7  -5  14    3.33    1.13
  -7  -5  14    2.70    1.06
  -7   5  14    2.89    0.95
   7   5 -14    2.79    0.66
  -5  -5  14    1.61    0.86
   5  -5 -14    1.09    0.43
  -5  -5  14    2.10    1.16
  -5   5  14    1.88    0.78
  -5   5  14    2.07    0.82
   5   5 -14    1.47    0.50
   3  -5 -14    5.47    0.66
  -3  -5  14    4.01    1.06
  -3  -5  14    3.14    0.91
  -3   5  14    3.58    0.86
  -3   5  14    4.05    0.82
   3   5 -14    5.01    0.67
  -1  -5  14    3.81    0.88
   1  -5 -14    4.01    0.52
  -1  -5  14    2.69    0.83
  -1   5  14    4.23    0.72
   1   5 -14    3.67    0.61
  -1   5  14    4.11    0.90
  -1  -5 -14    0.19    0.37
   1  -5  14    1.33    0.70
   1  -5  14    0.60    0.66
   1   5  14    0.13    0.63
  -1   5 -14    0.53    0.46
   3  -5  14    0.87    0.72
  -3  -5 -14    0.64    0.39
   3  -5  14    1.86    0.72
   3   5  14    1.57    0.68
  -3   5 -14    1.05    0.52
  -5  -5 -14    3.91    0.59
   5  -5  14    2.71    1.01
   5   5  14    3.29    1.00
  -5   5 -14    1.69    0.58
  -7  -5 -14    3.26    0.87
  -7  -5 -14    3.20    0.64
   7  -5  14    3.21    1.02
   7   5  14    2.31    0.87
  -7   5 -14    2.05    0.66
  -9  -5 -14    0.93    0.56
   9  -5  14    2.62    0.99
  -9  -5 -14    1.73    0.71
   9   5  14    1.23    0.93
  -9   5 -14    3.11    0.75
 -11  -5 -14    0.64    0.80
 -11  -5 -14    1.30    0.65
  11  -5  14    1.47    1.10
  11   5  14    0.39    1.01
 -11   5 -14    0.26    0.72
 -13  -5 -14   -0.46    0.95
 -13  -5 -14   -0.06    0.70
  13  -5  14    1.54    1.19
  13   5  14   -0.33    1.09
 -13   5 -14    1.35    0.85
 -14  -6  14    4.79    1.64
 -14  -6  14    4.50    1.62
 -14   6  14    6.42    1.93
 -14   6  14    4.33    1.39
 -12  -6  14   23.64    2.66
 -12  -6  14   17.02    2.32
 -12   6  14   20.29    2.14
 -12   6  14   15.65    2.12
 -10  -6  14    7.44    1.36
 -10  -6  14    4.45    1.33
  10   6 -14    6.14    0.94
 -10   6  14    6.27    1.53
 -10   6  14    6.93    1.23
  -8  -6  14    5.38    1.12
  -8  -6  14    5.21    1.23
  -8   6  14    6.10    1.14
  -8   6  14    5.34    1.20
   8   6 -14    6.56    0.80
  -6  -6  14   60.19    3.33
   6  -6 -14   63.69    2.41
  -6   6  14   56.80    3.56
   6   6 -14   59.59    2.45
  -6   6  14   59.65    2.88
  -4  -6  14    1.42    0.82
   4  -6 -14    0.52    0.46
  -4  -6  14    1.28    0.95
  -4   6  14    1.45    0.73
  -4   6  14    1.16    0.73
   4   6 -14    0.57    0.51
  -2  -6  14    0.76    0.78
  -2  -6  14    0.87    1.13
   2  -6 -14    0.45    0.41
   2   6 -14    1.13    0.51
  -2   6  14    0.59    0.71
   0  -6  14    1.04    0.87
   0  -6 -14    1.60    0.48
   0  -6  14    3.11    0.87
   0   6 -14    2.96    0.61
   0   6  14    2.33    0.79
   2  -6  14   39.51    2.35
  -2  -6 -14   41.32    1.76
   2   6  14   41.28    2.29
  -4  -6 -14   12.98    1.04
   4  -6  14   12.37    1.54
  -4   6 -14   13.45    1.18
   6  -6  14    1.44    0.87
  -6  -6 -14    0.50    0.51
   6   6  14    1.12    0.79
  -6   6 -14    0.31    0.54
  -8  -6 -14    5.33    0.75
   8  -6  14    3.68    1.03
  -8   6 -14    4.68    0.84
   8   6  14    4.61    1.12
 -10  -6 -14   33.77    1.81
  10  -6  14   32.65    2.40
  10   6  14   30.61    2.30
 -10   6 -14   30.37    1.97
 -12  -6 -14    2.69    0.80
  12  -6  14    5.93    1.35
 -12   6 -14    2.41    0.93
  12   6  14    3.09    1.18
 -13  -7  14    4.35    1.65
 -13  -7  14    2.27    1.53
 -13   7  14    5.46    1.87
 -13   7  14    4.50    1.39
 -11  -7  14    0.18    1.24
 -11  -7  14    0.90    1.17
 -11   7  14    0.85    1.04
  11   7 -14    1.20    0.78
 -11   7  14   -1.72    1.26
  -9  -7  14   11.44    1.70
  -9  -7  14   15.21    1.98
  -9   7  14   17.19    1.83
  -9   7  14   21.71    2.19
   9   7 -14   14.78    1.35
   7  -7 -14   29.49    1.82
  -7  -7  14   33.81    2.56
  -7  -7  14   32.10    2.32
   7   7 -14   30.14    1.70
  -7   7  14   27.52    2.12
  -7   7  14   31.85    2.20
  -5  -7  14    5.17    1.20
   5  -7 -14    4.78    0.66
  -5   7  14    3.29    1.11
  -3  -7  14   32.10    2.20
   3  -7 -14   30.61    1.46
  -3  -7  14   26.84    2.26
  -3   7  14   31.51    2.04
  -1  -7  14   93.76    4.16
  -1  -7  14   92.37    3.91
   1  -7 -14   90.14    3.58
  -1   7  14   92.63    3.84
   1  -7  14   16.60    1.68
  -1  -7 -14   15.32    1.08
   1  -7  14   13.01    1.61
   1   7  14   15.90    1.54
  -1   7 -14   14.03    1.21
  -3  -7 -14   31.59    2.09
   3  -7  14   31.24    2.18
  -3   7 -14   31.55    1.74
  -5  -7 -14   19.39    1.29
   5  -7  14   22.11    1.91
  -5   7 -14   20.13    1.45
   5   7  14   19.45    1.75
  -7  -7 -14    1.25    0.55
   7  -7  14   -0.37    0.91
   7   7  14    1.95    0.88
  -7   7 -14    0.31    0.60
   9  -7  14   15.56    1.88
  -9  -7 -14   12.84    1.26
  -9   7 -14   10.08    1.41
   9   7  14   11.34    1.72
 -11  -7 -14    8.35    1.00
  11  -7  14   12.18    1.68
  11   7  14    9.14    1.44
 -11   7 -14   10.65    1.26
 -14  -8  14   29.77    3.20
 -14   8  14   32.99    2.85
 -12  -8  14   45.66    3.53
 -12  -8  14   42.57    3.17
  12   8 -14   42.88    2.32
 -12   8  14   45.45    4.94
 -12   8  14   43.69    2.99
 -10  -8  14   16.10    2.13
 -10  -8  14   17.71    2.29
 -10   8  14   18.08    2.11
  10   8 -14   14.20    1.52
  -8  -8  14   15.52    2.09
  -8  -8  14   10.20    1.71
   8   8 -14   11.22    1.29
  -8   8  14   12.72    1.84
  -6  -8  14   84.73    3.84
   6  -8 -14   89.25    3.05
  -6  -8  14   76.05    4.00
  -6   8  14   81.78    3.66
   6   8 -14   78.23    3.22
  -4  -8  14   44.40    2.88
   4  -8 -14   48.91    2.00
   4   8 -14   46.90    2.20
  -4   8  14   44.44    3.49
  -2  -8  14   15.20    1.85
   2  -8 -14   15.70    1.12
  -2  -8  14   16.16    1.81
  -2   8  14   15.89    1.60
   2   8 -14   13.65    1.26
   0  -8 -14    8.40    0.94
   0  -8  14   10.69    1.55
   0  -8  14    7.83    1.26
   0   8 -14    8.13    1.07
   0   8  14    9.24    1.26
   2  -8  14   96.32    4.35
  -2  -8 -14  100.00    3.63
  -2   8 -14  105.03    3.85
  -4  -8 -14   44.48    2.01
   4  -8  14   44.63    2.61
  -4   8 -14   45.04    2.20
   4   8  14   41.20    2.42
   6  -8  14    2.85    1.09
  -6  -8 -14    3.50    0.67
   6   8  14    2.97    0.98
  -6   8 -14    3.18    0.77
   8  -8  14    7.49    1.43
  -8  -8 -14    6.89    0.89
  -8   8 -14    6.30    0.97
   8   8  14   11.44    1.71
 -10  -8 -14   33.00    1.92
  10  -8  14   36.43    2.70
 -10   8 -14   33.49    2.12
  10   8  14   32.28    2.49
 -13  -9  14    2.97    1.88
 -13  -9  14    2.59    1.57
 -13   9  14    0.27    1.35
 -11  -9  14   51.42    3.78
 -11  -9  14   63.13    3.73
 -11   9  14   57.29    3.33
  11   9 -14   58.27    2.78
  -9  -9  14   38.21    2.97
  -9  -9  14   39.06    3.10
   9   9 -14   37.10    2.15
  -9   9  14   44.55    3.04
  -7  -9  14   22.62    2.44
  -7  -9  14   29.50    2.46
   7  -9 -14   23.94    1.55
  -7   9  14   21.00    2.02
   7   9 -14   23.61    1.68
  -5  -9  14    1.40    1.13
  -5  -9  14    1.75    1.10
   5  -9 -14    1.14    0.65
  -5   9  14    1.47    0.87
   5   9 -14    0.38    0.63
   3  -9 -14   30.98    1.89
  -3  -9  14   36.03    3.69
  -3  -9  14   30.11    2.48
   3   9 -14   29.07    1.79
  -1  -9  14   95.74    4.33
   1  -9 -14   91.92    3.50
   1   9 -14   96.66    3.70
   1  -9  14   25.50    2.14
  -1  -9 -14   26.37    1.48
   1  -9  14   27.06    3.22
   1   9  14   25.58    2.53
  -1   9 -14   26.89    1.68
   3  -9  14    0.83    1.05
   3  -9  14    1.83    0.93
  -3  -9 -14    1.09    0.58
   3   9  14    1.47    0.89
  -3   9 -14    2.55    0.72
   5  -9  14   43.95    2.67
  -5  -9 -14   40.83    1.94
  -5   9 -14   35.35    2.09
   5   9  14   35.99    2.38
   7  -9  14   59.48    3.24
  -7  -9 -14   61.85    2.61
   7   9  14   65.28    3.15
  -7   9 -14   54.76    2.75
   9  -9  14   28.15    2.58
  -9  -9 -14   26.68    1.72
  -9   9 -14   24.32    1.91
   9   9  14   24.60    2.32
 -10 -10  14    1.03    1.50
 -10 -10  14   -1.49    1.53
 -10  10  14    1.85    1.27
  10  10 -14    2.01    0.97
  -8 -10  14   47.21    3.40
  -8 -10  14   52.66    3.36
  -8  10  14   49.34    2.89
   8  10 -14   52.13    2.58
   6 -10 -14   61.98    2.52
  -6 -10  14   55.04    3.52
  -6 -10  14   60.40    3.42
   6  10 -14   53.91    2.69
  -6  10  14   59.85    3.07
  -4 -10  14   39.90    2.94
   4 -10 -14   44.29    2.03
  -4 -10  14   42.19    2.82
   4  10 -14   41.54    2.25
  -4  10  14   43.13    2.52
  -2 -10  14    2.30    1.15
  -2 -10  14   -0.94    0.98
   2 -10 -14    1.21    0.62
   2  10 -14    3.66    0.79
  -2  10  14    0.94    0.99
   0 -10 -14    5.80    0.79
   0 -10  14    7.10    1.33
   0 -10  14    4.09    1.08
   0  10 -14    6.08    0.90
   0  10  14    5.43    1.09
   2 -10  14   34.77    2.54
  -2 -10 -14   37.42    1.85
   2 -10  14   36.03    2.54
  -2  10 -14   36.21    2.05
   2  10  14   41.49    2.37
  -4 -10 -14  124.46    4.44
   4 -10  14  124.04    5.03
   4  10  14  124.00    4.89
  -4  10 -14  126.04    4.71
   6 -10  14   47.57    3.01
  -6 -10 -14   45.00    2.24
  -6  10 -14   47.51    2.49
   6  10  14   51.94    2.83
  -8 -10 -14   68.35    2.93
   8 -10  14   65.97    3.58
  -8  10 -14   66.69    3.15
   8  10  14   71.13    3.44
  -9 -11  14   56.39    3.65
   9  11 -14   52.05    3.41
  -7 -11  14   25.12    2.84
  -7 -11  14   23.51    2.74
   7 -11 -14   25.53    1.82
   7  11 -14   19.87    1.85
  -5 -11  14    2.46    1.38
  -5 -11  14    1.13    1.23
   5 -11 -14    1.64    0.78
  -5  11  14    1.52    1.04
   5  11 -14    3.16    0.89
   3 -11 -14   53.11    2.38
  -3 -11  14   56.48    3.23
  -3 -11  14   51.50    3.33
   3  11 -14   49.32    2.60
  -3  11  14   57.27    2.86
  -1 -11  14   86.56    4.32
  -1 -11  14   97.35    4.17
   1 -11 -14   92.95    3.48
  -1  11  14   95.40    3.91
   1  11 -14   88.83    3.72
   1 -11  14   26.13    2.37
  -1 -11 -14   30.03    1.68
   1 -11  14   31.26    2.50
  -1  11 -14   27.76    1.86
   1  11  14   24.05    2.07
  -3 -11 -14    0.80    0.66
   3 -11  14    0.25    1.29
  -3  11 -14   -0.03    0.70
   3  11  14    0.81    1.02
  -5 -11 -14   25.25    1.68
   5  11  14   24.11    2.19
  -5  11 -14   26.24    1.85
  -7 -11 -14   69.27    3.07
  -7  11 -14   75.54    3.36
   7  11  14   80.56    4.38
  -8 -12  14    5.78    1.72
   8  12 -14    6.26    1.21
   6 -12 -14   81.46    3.20
  -6 -12  14   71.04    4.20
   6  12 -14   73.01    3.40
  -4 -12  14   69.05    4.00
   4 -12 -14   72.40    3.01
   4  12 -14   72.37    3.30
   2 -12 -14    9.11    1.05
  -2 -12  14   11.38    1.71
   2  12 -14    6.98    1.10
   0 -12 -14   21.57    1.58
   0 -12  14   15.64    2.22
   0  12 -14   18.67    1.73
  -2 -12 -14   44.62    2.22
  -2  12 -14   46.48    2.48
  -4 -12 -14   56.59    2.60
  -4  12 -14   57.41    2.85
  -6 -12 -14    1.99    0.83
  -6  12 -14    1.64    0.95
  -5 -13  14    0.30    1.49
   5 -13 -14    0.24    0.90
   5  13 -14    1.35    0.96
  -3 -13  14   31.14    2.89
   3 -13 -14   32.11    2.04
   3  13 -14   35.36    2.28
   1 -13 -14   50.52    2.43
  -1 -13  14   45.75    3.27
   1  13 -14   49.44    2.68
  -1 -13 -14   23.54    1.70
  -1  13 -14   18.02    1.88
  -3 -13 -14   13.45    1.54
  -3  13 -14   17.55    1.86
 -14   0  15    0.26    1.35
 -14   0  15    0.61    1.55
 -12   0  15    0.92    1.31
 -12   0  15    0.64    1.15
 -10   0  15   -0.58    0.94
 -10   0  15    0.83    1.06
  -8   0  15    0.39    0.80
  -8   0  15    1.94    1.08
  -6   0  15    0.26    0.78
  -6   0  15   -0.51    0.76
  -4   0  15   -0.39    0.74
   2   0 -15    0.49    0.47
  -2   0  15    0.98    0.86
  -2   0  15   -0.73    0.63
   0   0 -15    0.48    0.37
   0   0  15    0.00    1.05
   0   0  15    0.34    0.68
   0   0 -15    0.59    0.45
  -2   0 -15   -0.10    0.39
   2   0  15    0.53    0.63
   2   0  15    0.02    0.81
  -2   0 -15    0.66    0.48
  -4   0 -15   -0.14    0.61
   4   0  15    0.19    0.68
  -4   0 -15    0.68    0.45
  -6   0 -15   -0.21    0.53
  -6   0 -15    0.42    0.50
   6   0  15    0.01    0.68
  -8   0 -15    0.37    0.52
  -8   0 -15   -0.14    0.61
   8   0  15   -0.38    0.84
  10   0  15    1.11    1.01
 -10   0 -15   -0.81    0.68
 -10   0 -15    0.06    0.57
 -12   0 -15    0.16    0.86
  12   0  15   -0.48    1.09
 -12   0 -15   -0.47    0.65
 -15  -1  15    5.39    1.99
 -15  -1  15    4.91    1.68
 -15   1  15    1.79    1.71
 -15   1  15    4.58    1.64
 -13  -1  15   -0.10    1.18
 -13  -1  15    0.12    1.52
 -13   1  15   -1.14    1.48
 -13   1  15   -0.33    1.14
 -11  -1  15   18.05    2.43
 -11  -1  15   18.15    2.13
 -11   1  15   20.91    2.14
 -11   1  15   19.72    2.46
  -9  -1  15   30.05    2.27
  -9  -1  15   25.45    2.42
  -9   1  15   29.87    2.50
  -9   1  15   31.04    2.24
  -7  -1  15    5.39    1.09
  -7   1  15    5.30    1.14
  -7   1  15    6.83    1.15
  -5  -1  15   10.82    1.48
  -5  -1  15   11.53    1.63
  -5   1  15   10.49    1.49
  -5   1  15   14.06    1.62
  -3  -1  15   15.28    1.63
   3   1 -15   14.46    0.93
  -3   1  15   14.97    1.59
  -1  -1  15    2.79    1.29
   1  -1 -15    1.44    0.39
  -1  -1  15    0.91    0.70
  -1   1  15    1.15    0.95
  -1   1  15    0.73    0.70
   1   1 -15    1.52    0.47
  -1  -1 -15    2.15    0.48
   1  -1  15    1.09    0.69
  -1  -1 -15    1.95    0.46
   1   1  15    0.79    0.68
  -1   1 -15    1.74    0.44
  -1   1 -15    3.07    0.54
  -3  -1 -15    1.49    0.49
  -3  -1 -15    1.56    0.51
   3  -1  15    1.29    0.72
   3  -1  15    2.35    0.72
   3   1  15    0.94    0.63
  -3   1 -15    1.19    0.52
   3   1  15    1.81    0.81
  -3   1 -15    1.07    0.46
   5  -1  15    3.11    0.90
  -5  -1 -15    3.64    0.60
  -5  -1 -15    4.83    0.71
  -5   1 -15    3.06    0.56
  -5   1 -15    1.90    0.60
   5   1  15    2.15    0.78
   7  -1  15   29.46    2.13
  -7  -1 -15   31.11    1.59
  -7  -1 -15   29.01    1.81
  -7   1 -15   30.35    2.27
   7   1  15   28.98    2.12
  -7   1 -15   31.60    1.73
  -9  -1 -15    4.21    0.74
  -9  -1 -15    4.04    0.86
   9  -1  15    3.31    1.08
   9   1  15    4.38    1.09
  -9   1 -15    2.92    0.78
  -9   1 -15    2.95    0.74
 -11  -1 -15    4.78    0.98
 -11  -1 -15    5.15    0.83
  11  -1  15    5.25    1.16
  11   1  15    5.62    1.33
 -11   1 -15    4.05    0.81
 -11   1 -15    4.90    0.96
 -13  -1 -15   15.43    1.80
  13  -1  15   10.76    1.60
 -13  -1 -15   11.15    1.43
 -13   1 -15   11.38    1.47
  13   1  15   12.63    1.67
 -13   1 -15   14.95    1.75
 -14  -2  15   10.07    1.82
 -14  -2  15    9.03    2.05
 -14   2  15   13.34    1.97
 -14   2  15   11.07    2.05
 -12  -2  15   38.07    3.21
 -12  -2  15   39.44    2.87
 -12   2  15   32.10    3.14
 -12   2  15   35.00    2.79
 -10  -2  15   -0.01    1.08
 -10  -2  15    0.86    0.95
 -10   2  15   -1.72    0.83
 -10   2  15    0.82    1.18
  -8  -2  15   85.89    3.95
  -8  -2  15   84.02    4.10
  -8   2  15   85.09    4.10
  -8   2  15   84.27    3.92
  -6  -2  15   15.62    1.77
  -6   2  15   20.36    1.84
  -6   2  15   18.11    1.80
  -4  -2  15    2.35    0.93
  -4  -2  15    1.99    0.88
   4   2 -15    2.97    0.52
  -4   2  15    1.91    0.87
  -4   2  15    1.02    0.79
  -2  -2  15    1.30    0.75
   2  -2 -15    0.91    0.41
   2   2 -15    0.80    0.47
  -2   2  15    2.03    0.76
  -2   2  15    0.31    1.30
   0  -2 -15   29.83    1.34
   0  -2  15   28.58    2.01
   0   2 -15   30.92    1.44
   0   2 -15   29.10    1.47
   0   2  15   31.36    1.86
  -2  -2 -15   24.61    1.39
   2  -2  15   24.58    1.91
  -2  -2 -15   26.21    1.26
   2  -2  15   25.90    1.82
   2   2  15   26.33    1.63
   2   2  15   20.44    1.78
  -2   2 -15   24.34    1.20
  -2   2 -15   22.06    1.36
  -4  -2 -15    7.01    0.94
   4  -2  15    8.96    1.34
   4  -2  15    9.00    1.31
  -4  -2 -15    9.13    0.88
   4   2  15    8.32    1.18
  -4   2 -15    8.77    0.87
  -4   2 -15   10.16    1.04
   6  -2  15   10.61    1.54
  -6  -2 -15   10.73    1.12
   6   2  15    9.68    1.46
  -6   2 -15    9.54    1.11
  -6   2 -15   10.68    1.04
  -8  -2 -15   36.28    1.91
  -8  -2 -15   34.73    1.78
   8  -2  15   35.92    2.40
  -8   2 -15   37.84    1.94
   8   2  15   32.85    2.29
 -10  -2 -15   57.41    2.47
  10  -2  15   54.68    3.12
 -10  -2 -15   58.38    2.61
  10   2  15   56.06    3.10
 -10   2 -15   57.32    2.66
 -12  -2 -15    1.11    0.92
  12  -2  15    2.63    1.18
 -12  -2 -15    3.11    0.79
 -12   2 -15    0.29    0.86
  12   2  15    2.04    1.17
 -15  -3  15    2.80    1.90
 -15  -3  15    1.24    1.64
 -15   3  15    1.38    1.56
 -15   3  15   -0.19    1.82
 -13  -3  15    9.34    1.86
 -13  -3  15   16.15    2.32
 -13   3  15   16.87    2.32
 -13   3  15   11.96    2.11
 -11  -3  15   45.85    3.31
 -11  -3  15   48.14    3.01
 -11   3  15   47.59    3.32
 -11   3  15   43.55    2.93
  -9  -3  15   40.26    2.69
  -9  -3  15   38.00    2.86
  -9   3  15   46.13    3.02
  -9   3  15   43.18    2.65
  -7  -3  15   -0.16    0.91
  -7  -3  15    0.10    0.76
  -7   3  15    0.73    0.85
  -7   3  15    0.22    0.91
  -5  -3  15    7.75    1.16
  -5   3  15    7.51    1.20
   5   3 -15    5.97    0.86
  -5   3  15    7.49    1.19
  -3  -3  15   87.39    4.11
  -3  -3  15   87.31    3.94
   3  -3 -15   90.55    2.96
  -3   3  15   90.51    3.68
  -3   3  15   79.70    4.33
   3   3 -15   90.19    3.14
  -1  -3  15   52.77    2.82
   1  -3 -15   53.85    2.02
   1   3 -15   54.52    2.19
  -1   3  15   53.48    2.52
   1  -3  15    4.72    0.95
  -1  -3 -15    7.30    0.78
   1  -3  15    6.29    1.21
  -1   3 -15    7.50    0.74
   1   3  15    4.73    0.98
  -1   3 -15    7.55    0.91
   1   3  15    6.31    0.86
   3  -3  15   40.01    2.30
  -3  -3 -15   38.25    1.73
   3  -3  15   39.43    2.35
   3   3  15   38.92    2.35
  -3   3 -15   40.46    1.87
  -3   3 -15   38.01    1.65
   5  -3  15   64.24    3.18
  -5  -3 -15   68.99    2.47
  -5  -3 -15   66.61    2.58
  -5   3 -15   64.89    2.71
   5   3  15   64.33    3.18
  -7  -3 -15   30.80    1.61
   7  -3  15   32.29    2.23
  -7  -3 -15   30.67    1.66
   7   3  15   27.76    2.15
  -7   3 -15   30.57    1.77
  -9  -3 -15    0.88    0.78
   9  -3  15    1.62    1.01
  -9  -3 -15   -0.02    0.58
  -9   3 -15    0.94    0.71
   9   3  15   -0.63    0.92
 -11  -3 -15   15.52    1.42
 -11  -3 -15   19.49    1.76
  11  -3  15   12.37    1.62
  11   3  15   15.82    1.95
 -11   3 -15   17.57    1.67
 -13  -3 -15   17.33    1.59
  13  -3  15   19.69    2.39
 -13  -3 -15   15.89    1.81
 -13   3 -15   15.91    1.87
  13   3  15   11.39    1.66
 -14  -4  15   88.11    4.97
 -14  -4  15   90.83    4.73
 -14   4  15   96.09    4.57
 -14   4  15   84.05    5.05
 -12  -4  15    1.54    1.52
 -12  -4  15    1.78    1.28
 -12   4  15    5.30    1.58
 -12   4  15    3.59    1.24
 -10  -4  15   15.56    2.37
 -10  -4  15   15.99    2.03
 -10   4  15   12.81    1.92
 -10   4  15   17.00    2.34
  -8  -4  15   42.21    2.65
  -8  -4  15   36.83    2.80
  -8   4  15   42.67    2.81
  -8   4  15   38.05    2.54
   8   4 -15   43.77    2.00
  -6  -4  15  108.20    4.88
  -6  -4  15  111.01    4.70
  -6   4  15  114.15    4.69
   6   4 -15  117.30    3.89
  -6   4  15  113.39    4.59
  -4  -4  15   36.25    2.34
  -4  -4  15   35.77    2.46
  -4   4  15   34.47    2.16
   4   4 -15   33.97    1.64
  -4   4  15   34.63    2.24
  -2  -4  15    5.44    1.07
  -2  -4  15    7.22    1.58
   2  -4 -15    5.09    0.61
  -2   4  15    5.64    1.19
   2   4 -15    6.25    0.89
  -2   4  15    6.83    0.98
   0  -4  15   67.82    3.32
   0  -4 -15   74.09    2.60
   0  -4  15   70.87    3.42
   0   4  15   73.71    2.93
   0   4 -15   72.50    2.77
   0   4  15   66.36    3.39
   2  -4  15  185.95    7.41
  -2  -4 -15  202.28    6.31
   2  -4  15  197.26    7.08
  -2   4 -15  196.57    6.19
  -2   4 -15  201.74    6.55
   2   4  15  193.60    7.04
   4  -4  15   40.72    2.50
   4  -4  15   41.34    2.74
  -4  -4 -15   46.13    1.92
   4   4  15   42.76    2.49
  -4   4 -15   44.92    2.09
  -6  -4 -15   38.78    1.80
   6  -4  15   35.90    2.35
  -6   4 -15   37.07    1.95
   6   4  15   33.84    2.30
  -8  -4 -15  104.34    3.82
   8  -4  15  101.56    4.45
   8   4  15  105.65    4.50
  -8   4 -15  106.17    4.01
 -10  -4 -15   32.95    1.84
 -10  -4 -15   33.04    2.34
  10  -4  15   29.03    2.44
 -10   4 -15   34.71    2.09
  10   4  15   30.54    2.38
  12  -4  15   18.43    2.31
 -12  -4 -15   19.54    2.55
 -12  -4 -15   16.69    1.56
  12   4  15   20.87    2.19
 -12   4 -15   14.42    1.77
 -13  -5  15   49.55    3.76
 -13  -5  15   46.85    3.40
 -13   5  15   47.35    3.84
 -13   5  15   52.93    3.27
 -11  -5  15   60.43    3.48
 -11  -5  15   50.70    3.63
 -11   5  15   56.46    3.73
 -11   5  15   60.81    3.37
  -9  -5  15   33.55    2.96
  -9  -5  15   42.28    2.79
  -9   5  15   39.89    2.65
   9   5 -15   46.02    2.18
  -9   5  15   39.48    4.50
  -7  -5  15   13.72    1.91
  -7  -5  15   19.10    2.16
   7   5 -15   16.97    1.27
  -7   5  15   15.59    1.86
  -7   5  15   16.37    1.94
  -5  -5  15   66.31    3.54
  -5  -5  15   70.25    3.42
  -5   5  15   68.41    3.33
   5   5 -15   69.23    2.71
  -5   5  15   73.20    3.22
  -3  -5  15  145.76    5.91
   3  -5 -15  155.57    4.91
  -3  -5  15  150.26    5.79
   3   5 -15  151.30    5.12
  -3   5  15  143.65    5.71
  -3   5  15  161.12    5.44
  -1  -5  15   54.09    2.82
   1  -5 -15   50.25    1.99
  -1  -5  15   46.53    2.80
   1   5 -15   50.16    2.17
  -1   5  15   48.98    2.65
  -1  -5 -15    0.22    0.45
   1  -5  15   -0.34    0.71
   1  -5  15    1.05    0.87
   1   5  15   -0.18    0.73
   3  -5  15   35.42    2.33
   3  -5  15   32.80    2.22
  -3  -5 -15   35.06    1.64
  -3   5 -15   35.08    1.83
   3   5  15   34.57    2.24
   5  -5  15  148.04    5.58
  -5  -5 -15  145.15    4.88
  -5   5 -15  140.85    5.08
   5   5  15  141.31    5.52
  -7  -5 -15   26.65    1.53
   7  -5  15   23.92    2.19
  -7   5 -15   25.55    1.73
   7   5  15   27.37    2.16
  -9  -5 -15    3.07    0.76
   9  -5  15    2.54    1.18
   9   5  15    3.32    1.11
  -9   5 -15    3.52    0.87
  11  -5  15   16.86    2.25
 -11  -5 -15   13.56    1.46
  11   5  15   15.57    2.02
 -11   5 -15   11.26    1.67
 -12  -6  15   33.70    2.92
 -12  -6  15   27.89    3.11
 -12   6  15   35.53    2.73
 -12   6  15   36.83    3.28
 -10  -6  15    1.50    1.24
 -10  -6  15    0.05    1.31
 -10   6  15    2.30    1.37
 -10   6  15    5.25    1.21
  -8  -6  15   63.34    3.48
  -8  -6  15   65.19    3.74
   8   6 -15   68.01    2.71
  -8   6  15   62.15    3.34
  -8   6  15   66.72    3.45
  -6  -6  15  153.09    5.98
  -6  -6  15  150.65    6.26
  -6   6  15  154.68    5.92
  -6   6  15  167.99    5.80
   6   6 -15  146.92    5.73
  -4  -6  15    7.95    1.34
   4  -6 -15    7.96    0.98
  -4  -6  15    9.13    1.32
  -4   6  15    7.46    1.17
   4   6 -15    6.87    1.22
  -2  -6  15   12.58    1.75
  -2  -6  15   13.61    1.81
   2  -6 -15   14.68    1.03
   2   6 -15   10.61    1.16
  -2   6  15   10.96    1.56
   0  -6 -15   39.84    1.76
   0  -6  15   40.10    2.51
   0  -6  15   39.95    2.54
   0   6  15   38.84    2.37
   0   6 -15   38.45    1.95
  -2  -6 -15   71.99    2.82
   2  -6  15   71.84    3.50
   2  -6  15   74.58    3.48
  -2   6 -15   72.11    2.95
   2   6  15   69.94    3.33
  -4  -6 -15   58.11    2.38
   4  -6  15   59.03    3.03
   4  -6  15   56.69    3.07
   4   6  15   54.90    2.92
  -4   6 -15   58.66    2.57
  -6  -6 -15    2.25    0.61
   6  -6  15    2.12    1.08
  -6   6 -15    1.67    0.69
   6   6  15    2.90    1.04
  -8  -6 -15   69.78    2.84
   8  -6  15   71.28    3.54
   8   6  15   65.18    3.44
  -8   6 -15   70.06    3.08
 -10  -6 -15   78.09    3.15
  10  -6  15   76.17    3.79
 -10   6 -15   77.86    3.36
  10   6  15   72.49    3.69
 -13  -7  15   11.22    1.98
 -13  -7  15    7.59    1.96
 -13   7  15    8.92    1.65
 -11  -7  15   51.52    3.42
 -11  -7  15   52.69    3.79
 -11   7  15   52.64    3.28
  -9  -7  15   50.47    3.21
  -9  -7  15   52.33    3.47
   9   7 -15   49.95    2.38
  -9   7  15   46.12    3.02
  -7  -7  15   -2.12    1.03
  -7  -7  15    1.24    1.10
   7   7 -15    1.33    0.71
  -7   7  15   -0.70    0.88
   5  -7 -15   31.64    2.07
  -5  -7  15   31.51    2.54
  -5  -7  15   34.19    2.44
  -5   7  15   28.89    2.26
   5   7 -15   33.30    1.81
  -3  -7  15   90.16    4.29
   3  -7 -15   97.15    3.31
  -3  -7  15   96.71    4.14
  -3   7  15   86.35    3.96
   3   7 -15   89.53    3.50
  -1  -7  15   42.95    2.58
   1  -7 -15   41.42    1.83
  -1  -7  15   38.26    2.66
  -1   7  15   37.91    2.39
   1   7 -15   39.50    2.02
   1  -7  15    2.30    1.02
   1  -7  15    0.08    0.83
  -1   7 -15    0.41    0.58
   1   7  15   -0.39    0.83
   3  -7  15   27.65    2.16
  -3  -7 -15   21.55    1.42
   3  -7  15   22.58    2.07
  -3   7 -15   23.14    1.60
   3   7  15   27.10    2.06
   5  -7  15   22.07    2.13
  -5  -7 -15   23.98    1.45
  -5   7 -15   18.04    1.56
   5   7  15   22.50    2.01
   7  -7  15   56.56    3.15
  -7  -7 -15   54.28    2.45
  -7   7 -15   60.42    2.73
   7   7  15   51.98    3.01
  -9  -7 -15   13.84    1.43
   9  -7  15   16.92    1.90
   9   7  15   12.27    1.58
  -9   7 -15   14.00    1.60
 -12  -8  15   16.31    2.36
 -12  -8  15   14.64    2.07
 -12   8  15   16.54    2.46
 -10  -8  15   10.10    1.83
 -10  -8  15    9.30    1.81
  10   8 -15    8.38    1.12
 -10   8  15    6.45    1.49
  -8  -8  15   34.16    2.96
  -8  -8  15   40.39    2.92
  -8   8  15   35.34    2.58
   8   8 -15   35.80    2.05
  -6  -8  15    9.45    1.62
  -6  -8  15   14.92    2.14
  -6   8  15   11.82    1.48
   6   8 -15    9.24    1.09
  -4  -8  15   15.88    2.16
  -4  -8  15   15.10    2.13
   4  -8 -15   18.84    1.34
  -4   8  15   21.40    2.01
   4   8 -15   18.68    1.47
  -2  -8  15    3.66    1.20
  -2  -8  15    2.73    1.08
   2   8 -15    2.58    0.73
  -2   8  15    3.10    1.03
   0  -8 -15   56.08    2.30
   0  -8  15   54.04    3.09
   0  -8  15   54.03    2.99
   0   8  15   50.67    2.84
   0   8 -15   53.35    2.48
   2  -8  15   56.37    3.07
  -2  -8 -15   58.05    2.36
   2  -8  15   54.99    3.09
  -2   8 -15   50.51    2.50
   2   8  15   55.37    2.94
   4  -8  15   18.77    2.14
  -4  -8 -15   14.71    1.30
  -4   8 -15   16.26    1.46
   4   8  15   14.71    1.83
   6  -8  15   -0.19    1.12
  -6  -8 -15    1.28    0.69
   6   8  15    0.89    1.05
  -6   8 -15    1.95    0.78
   8  -8  15   38.73    2.83
  -8  -8 -15   37.38    2.04
   8   8  15   37.82    2.65
  -8   8 -15   37.76    2.26
  10  -8  15   41.40    2.95
 -10  -8 -15   37.89    2.21
  10   8  15   42.90    2.80
 -11  -9  15    4.90    1.81
 -11  -9  15    3.20    1.70
 -11   9  15    4.14    1.51
  11   9 -15    1.68    1.01
  -9  -9  15    0.58    1.58
  -9  -9  15    2.09    1.48
  -9   9  15    1.99    1.28
   9   9 -15    1.27    0.94
  -7  -9  15   -0.69    1.31
  -7  -9  15    0.29    1.18
   7   9 -15    0.78    0.81
  -7   9  15    3.30    1.13
  -5  -9  15   -0.31    1.16
   5  -9 -15    1.49    0.78
  -5  -9  15    1.13    1.26
  -5   9  15    2.05    1.05
   5   9 -15    1.49    0.79
  -3  -9  15   10.25    1.61
  -3  -9  15    9.85    1.68
   3  -9 -15   11.99    1.27
  -3   9  15   10.28    1.44
   3   9 -15   10.05    1.35
  -1  -9  15   40.43    2.72
   1  -9 -15   36.52    1.90
  -1  -9  15   36.17    2.68
  -1   9  15   35.90    2.48
   1   9 -15   43.99    2.19
  -1  -9 -15    4.82    0.77
   1  -9  15    6.09    1.39
   1  -9  15    4.36    1.25
   1   9  15    4.00    1.10
  -1   9 -15    4.85    0.86
  -3  -9 -15    9.35    1.21
   3  -9  15    7.61    1.33
   3  -9  15   12.81    1.66
  -3   9 -15   11.07    1.38
   3   9  15    9.37    1.36
  -5  -9 -15    1.04    0.69
   5  -9  15   -0.19    1.17
  -5   9 -15    1.70    0.77
   5   9  15    3.33    1.11
  -7  -9 -15    3.12    0.81
   7  -9  15    3.84    1.39
   7   9  15    3.35    1.27
  -7   9 -15    3.06    0.90
  -8 -10  15   11.44    2.01
  -8 -10  15   14.39    2.04
  -8  10  15   14.61    2.18
   8  10 -15    9.89    1.26
  -6 -10  15    1.62    1.47
  -6 -10  15    2.42    1.37
  -6  10  15    2.59    1.23
   6  10 -15    0.38    0.83
  -4 -10  15    0.76    1.36
   4 -10 -15    0.30    0.75
  -4 -10  15   -1.95    1.10
  -4  10  15   -0.40    1.07
   4  10 -15    0.24    0.77
   2 -10 -15    1.25    0.72
  -2 -10  15    1.20    1.17
  -2 -10  15    1.17    1.35
  -2  10  15    1.14    1.05
   2  10 -15    1.12    0.76
   0 -10  15   -0.83    1.04
   0 -10 -15    1.61    0.71
   0 -10  15    1.08    1.31
   0  10  15    0.18    1.04
   0  10 -15   -0.07    0.72
   2 -10  15    8.06    1.60
   2 -10  15    8.99    1.52
  -2 -10 -15   10.66    1.27
  -2  10 -15    9.08    1.36
   2  10  15    8.55    1.38
   4 -10  15    0.23    1.39
  -4 -10 -15   -0.71    0.67
  -4  10 -15    0.52    0.79
   4  10  15    1.61    1.12
   6 -10  15   -0.59    1.44
  -6 -10 -15    0.35    0.75
  -6  10 -15   -0.29    0.81
   6  10  15   -0.69    1.18
  -7 -11  15    1.33    1.50
   7  11 -15    0.78    0.95
  -5 -11  15    2.84    1.45
   5 -11 -15    3.95    0.92
   5  11 -15    1.70    0.94
  -3 -11  15   -0.14    1.15
   3 -11 -15   -0.60    0.79
   3  11 -15    1.14    0.89
  -1 -11  15   23.00    2.50
   1 -11 -15   26.16    1.76
   1  11 -15   22.12    1.83
  -1  11  15   22.61    2.53
   1 -11  15    2.96    1.30
  -1 -11 -15    2.03    0.80
   1  11  15    2.78    1.36
  -1  11 -15    1.04    0.82
  -3 -11 -15    0.14    0.71
  -3  11 -15    1.65    0.84
  -5 -11 -15    5.94    0.98
  -5  11 -15    3.28    1.08
   4 -12 -15    7.16    1.10
  -4 -12  15    9.37    1.72
   4  12 -15    7.16    1.26
  -2 -12  15   -1.26    1.20
   2 -12 -15   -0.64    0.82
   2  12 -15   -0.45    0.91
   0 -12  15   42.66    3.18
   0 -12 -15   49.85    2.41
   0  12 -15   48.49    2.63
  -2 -12 -15   11.21    1.52
  -2  12 -15    8.96    1.32
 -14   0  16   15.04    2.37
 -14   0  16   20.42    2.85
 -12   0  16    0.24    1.30
 -12   0  16    0.23    1.40
 -10   0  16   20.18    2.31
 -10   0  16   23.80    2.71
  -8   0  16  118.75    5.07
  -8   0  16  111.09    4.96
  -6   0  16   55.03    3.02
  -6   0  16   56.85    3.24
  -4   0  16    1.34    0.96
  -4   0  16    1.84    0.88
  -2   0  16   49.74    2.75
  -2   0  16   45.00    2.64
   0   0  16  127.40    4.89
   0   0  16  123.26    5.03
   2   0  16   47.92    2.77
  -2   0 -16   50.88    2.10
  -2   0 -16   53.04    2.06
   2   0  16   53.09    2.63
  -4   0 -16    1.96    0.69
   4   0  16    3.35    1.02
  -4   0 -16    3.96    0.67
   6   0  16   29.93    2.24
  -6   0 -16   32.59    1.77
  -6   0 -16   28.25    1.61
  -8   0 -16   79.61    3.13
  -8   0 -16   75.12    2.98
   8   0  16   70.16    3.64
 -10   0 -16   82.16    3.28
 -10   0 -16   87.46    3.48
  10   0  16   76.14    3.95
 -13  -1  16   88.21    4.97
 -13  -1  16   81.43    4.47
 -13   1  16   91.01    4.50
 -13   1  16   82.94    4.91
 -11  -1  16   70.95    4.21
 -11  -1  16   70.91    3.85
 -11   1  16   69.58    4.15
 -11   1  16   70.40    3.81
  -9  -1  16    3.65    1.23
  -9  -1  16    5.25    1.44
  -9   1  16    3.02    1.19
  -9   1  16    4.47    1.37
  -7  -1  16   40.24    2.68
  -7  -1  16   40.27    2.84
  -7   1  16   39.85    2.80
  -7   1  16   42.11    2.70
  -5  -1  16   50.25    3.06
  -5  -1  16   51.92    2.91
  -5   1  16   56.06    3.08
  -5   1  16   53.78    2.92
  -3  -1  16   74.19    3.58
  -3  -1  16   75.41    4.16
  -3   1  16   74.27    3.59
  -3   1  16   81.55    3.56
  -1  -1  16   31.73    2.20
  -1  -1  16   32.28    2.19
  -1   1  16   32.47    2.09
   1   1 -16   30.35    1.49
  -1   1  16   27.28    2.17
   1  -1  16    9.44    1.41
   1  -1  16    6.36    1.11
  -1  -1 -16    6.30    0.70
   1   1  16    6.38    1.10
  -1   1 -16    6.18    0.76
   1   1  16    5.08    0.95
  -3  -1 -16  174.67    5.65
  -3  -1 -16  179.21    5.58
   3  -1  16  164.20    6.15
   3  -1  16  165.24    6.37
  -3   1 -16  174.32    5.66
  -3   1 -16  172.04    5.53
   3   1  16  162.91    6.35
  -5  -1 -16   79.40    2.93
  -5  -1 -16   75.90    3.64
   5  -1  16   72.14    3.56
  -5   1 -16   76.83    3.01
   5   1  16   69.96    3.51
  -5   1 -16   77.10    2.87
   7  -1  16    8.33    1.33
  -7  -1 -16   10.74    1.20
  -7  -1 -16   10.27    1.38
  -7   1 -16    9.72    1.21
  -7   1 -16   11.93    1.32
   7   1  16    7.52    1.26
   9  -1  16   12.84    1.76
  -9  -1 -16   13.78    1.37
  -9  -1 -16   12.69    1.61
  -9   1 -16   13.77    1.57
   9   1  16   10.93    1.61
  -9   1 -16   13.94    1.40
 -11  -1 -16   77.19    3.28
  11  -1  16   69.98    3.73
 -11  -1 -16   72.09    3.09
  11   1  16   72.40    3.72
 -11   1 -16   78.86    3.30
 -11   1 -16   73.28    3.08
 -12  -2  16   -0.37    1.24
 -12  -2  16    1.65    1.52
 -12   2  16   -1.49    1.18
 -12   2  16    0.40    1.66
 -10  -2  16    6.39    1.35
 -10  -2  16    9.86    1.75
 -10   2  16   10.91    1.85
 -10   2  16    6.87    1.36
  -8  -2  16   70.51    3.68
  -8  -2  16   68.39    3.83
  -8   2  16   70.17    3.62
  -8   2  16   72.90    3.76
  -6  -2  16   98.58    4.41
  -6  -2  16  102.57    4.59
  -6   2  16   95.17    5.09
  -6   2  16  100.51    4.39
  -4  -2  16    1.21    0.89
  -4  -2  16   -1.63    0.82
  -4   2  16    0.75    0.94
  -4   2  16   -0.02    0.81
  -2  -2  16  103.65    4.44
  -2  -2  16   89.63    5.23
   2   2 -16  107.64    3.57
  -2   2  16  105.19    4.45
  -2   2  16  108.98    4.26
   0  -2  16   88.11    3.97
   0  -2  16   84.63    4.87
   0  -2 -16   93.83    3.12
   0   2  16   93.92    3.71
   0   2  16   86.30    3.94
   0   2 -16   89.33    3.23
   2  -2  16    3.77    1.05
  -2  -2 -16    4.74    0.67
   2  -2  16    4.86    1.55
   2   2  16    4.67    0.92
   2   2  16    3.54    0.99
  -2   2 -16    4.14    0.75
   4  -2  16    0.35    0.86
  -4  -2 -16    0.70    0.56
  -4   2 -16    1.28    0.57
   4   2  16    0.40    0.78
  -4   2 -16    0.88    0.61
   6  -2  16    4.00    1.11
  -6  -2 -16    7.47    1.17
  -6  -2 -16    5.75    0.80
   6   2  16    7.37    1.27
  -6   2 -16    5.38    0.87
  -6   2 -16    7.01    0.88
  -8  -2 -16   58.89    2.54
  -8  -2 -16   51.02    2.42
   8  -2  16   54.06    3.10
  -8   2 -16   57.28    2.61
   8   2  16   52.88    3.08
  -8   2 -16   56.95    2.43
  10  -2  16   35.25    2.71
 -10  -2 -16   38.06    2.05
 -10  -2 -16   45.34    2.29
 -10   2 -16   38.40    2.10
  10   2  16   32.97    2.65
 -10   2 -16   37.48    2.24
 -13  -3  16   21.47    2.81
 -13  -3  16   22.43    3.20
 -13   3  16   21.68    3.32
 -13   3  16   25.76    2.79
 -11  -3  16   36.84    3.22
 -11  -3  16   34.44    2.88
 -11   3  16   40.48    2.93
 -11   3  16   43.41    3.38
  -9  -3  16    5.38    1.47
  -9  -3  16    4.62    1.36
  -9   3  16    4.53    1.21
  -9   3  16    3.63    1.38
  -7  -3  16    3.62    1.20
  -7  -3  16    5.20    1.36
  -7   3  16    4.65    1.35
  -7   3  16    3.08    1.08
  -5  -3  16   22.31    2.06
  -5  -3  16   21.71    2.26
  -5   3  16   21.25    1.99
  -5   3  16   22.04    2.12
  -3  -3  16   32.24    2.44
  -3  -3  16   39.62    2.49
  -3   3  16   38.92    2.32
  -3   3  16   33.42    2.36
   3   3 -16   37.51    1.74
   1  -3 -16    1.35    0.63
  -1  -3  16    1.76    0.92
  -1  -3  16    0.81    0.82
  -1   3  16    2.96    0.92
   1   3 -16    2.51    0.63
  -1   3  16    0.37    0.80
   1  -3  16   10.83    1.64
   1  -3  16   11.27    1.58
  -1  -3 -16   12.75    1.05
  -1   3 -16   12.02    1.20
   1   3  16   12.92    1.64
   3  -3  16   18.00    1.88
   3  -3  16   13.67    1.76
  -3  -3 -16   17.95    1.23
  -3   3 -16   20.28    1.42
   3   3  16   16.40    1.82
   5  -3  16   53.73    2.97
  -5  -3 -16   56.38    2.31
   5   3  16   53.18    2.93
  -5   3 -16   52.60    2.24
  -5   3 -16   53.54    2.44
   7  -3  16    1.24    1.07
  -7  -3 -16    0.47    0.64
   7   3  16    0.77    0.96
  -7   3 -16    0.30    0.70
  -7   3 -16   -0.61    0.66
   9  -3  16   12.42    1.68
  -9  -3 -16   13.59    1.41
  -9   3 -16   11.86    1.54
   9   3  16   13.53    2.01
 -11  -3 -16    5.15    0.96
  11  -3  16    3.21    1.34
 -11   3 -16    5.36    1.12
  11   3  16    4.84    1.28
 -12  -4  16    4.59    1.60
 -12  -4  16    0.90    1.38
 -12   4  16    2.10    1.76
 -12   4  16    1.17    1.32
 -10  -4  16    9.59    1.70
 -10  -4  16    6.77    1.67
 -10   4  16    7.64    1.76
 -10   4  16   10.74    1.65
  -8  -4  16    3.94    1.20
  -8  -4  16    5.63    1.51
  -8   4  16    3.87    1.38
  -8   4  16    5.39    1.30
  -6  -4  16    2.01    1.07
  -6  -4  16    1.12    1.06
  -6   4  16    1.42    0.96
  -6   4  16    3.15    1.18
  -4  -4  16    3.37    1.03
  -4  -4  16    2.19    1.07
  -4   4  16    2.23    0.99
   4   4 -16    1.57    0.66
  -4   4  16    2.91    1.02
  -2  -4  16   20.06    2.06
  -2  -4  16   18.44    1.97
   2   4 -16   21.16    1.40
  -2   4  16   17.57    2.41
  -2   4  16   18.61    1.91
   0  -4 -16    7.11    0.97
   0  -4  16    4.60    1.09
   0  -4  16    5.22    1.16
   0   4  16    5.72    1.17
   0   4 -16    5.61    1.02
  -2  -4 -16    0.20    0.54
   2  -4  16    1.26    0.88
   2  -4  16    0.01    0.88
   2   4  16    1.83    0.94
  -2   4 -16    0.49    0.64
   4  -4  16    3.81    1.10
  -4  -4 -16    5.05    0.77
   4   4  16    4.61    1.05
  -4   4 -16    5.84    0.87
   6  -4  16    3.53    1.20
  -6  -4 -16    5.04    0.81
  -6   4 -16    5.29    0.89
   6   4  16    3.77    1.10
   8  -4  16   21.51    2.23
  -8  -4 -16   20.45    1.56
   8   4  16   18.28    2.11
  -8   4 -16   19.73    1.71
 -10  -4 -16    0.32    0.80
  10  -4  16   -1.02    1.18
 -10   4 -16    2.60    0.95
  10   4  16    0.82    1.13
 -11  -5  16    0.13    1.48
 -11  -5  16    0.93    1.38
 -11   5  16    0.34    1.30
 -11   5  16    1.75    1.66
  -9  -5  16    5.31    1.47
  -9  -5  16    2.60    1.38
  -9   5  16    3.77    1.31
  -9   5  16    2.36    1.40
  -7  -5  16    7.14    1.52
  -7  -5  16    7.46    1.45
  -7   5  16    5.02    1.32
  -7   5  16    5.29    1.51
  -5  -5  16    1.40    1.07
  -5  -5  16    2.02    1.13
  -5   5  16    2.93    0.98
  -3  -5  16   12.07    1.91
  -3  -5  16    7.23    1.36
  -3   5  16   10.24    1.41
   3   5 -16   10.33    1.19
   1  -5 -16   10.78    1.06
  -1  -5  16   12.40    1.87
  -1  -5  16    9.96    1.42
  -1   5  16    9.38    1.31
   1   5 -16    8.30    1.18
  -1  -5 -16   13.28    1.16
   1  -5  16   14.72    1.82
   1  -5  16   11.69    1.51
   1   5  16   14.42    1.76
  -1   5 -16   14.07    1.30
   3  -5  16    9.40    1.48
  -3  -5 -16    8.18    1.10
   3  -5  16    9.85    1.40
  -3   5 -16    9.02    1.22
   3   5  16    8.84    1.37
   5  -5  16   28.19    2.31
  -5  -5 -16   27.63    1.61
  -5   5 -16   28.01    1.83
   5   5  16   27.65    2.25
   7  -5  16    1.03    1.13
  -7  -5 -16    1.53    0.69
  -7   5 -16   -0.03    0.79
   7   5  16    0.99    1.06
   9  -5  16    8.25    1.59
  -9  -5 -16   11.08    1.37
   9   5  16   12.86    1.62
  -9   5 -16    8.64    1.16
 -12  -6  16    5.87    2.08
 -12  -6  16    1.48    1.70
 -12   6  16    1.51    1.45
 -10  -6  16   15.94    2.05
 -10  -6  16   13.04    2.01
 -10   6  16   19.81    2.34
  -8  -6  16    0.48    1.29
  -8  -6  16    1.30    1.41
  -8   6  16    0.67    1.15
  -6  -6  16    0.95    1.12
  -6  -6  16    1.83    1.23
  -6   6  16    2.26    1.07
   6   6 -16    2.43    0.80
  -4  -6  16    5.14    1.36
  -4  -6  16    9.27    1.53
   4   6 -16    9.84    1.28
  -4   6  16    7.45    1.33
  -2  -6  16    8.93    1.47
  -2  -6  16    9.75    1.51
   2  -6 -16    8.42    1.08
   2   6 -16    8.93    1.19
  -2   6  16    9.25    1.36
   0  -6  16    6.96    1.28
   0  -6  16    6.41    1.29
   0   6  16    6.97    1.19
   0   6 -16    6.42    0.89
   2  -6  16    2.30    0.99
   2  -6  16    1.35    1.02
  -2  -6 -16    3.10    0.68
  -2   6 -16    1.95    0.71
   2   6  16    0.90    0.93
   4  -6  16    0.31    1.07
  -4  -6 -16    0.13    0.60
  -4   6 -16    1.38    0.69
   4   6  16   -0.68    0.90
   6  -6  16    4.44    1.32
  -6  -6 -16    5.83    0.91
   6   6  16    6.04    1.31
  -6   6 -16    5.82    1.03
   8  -6  16    8.58    1.57
  -8  -6 -16   12.38    1.43
   8   6  16   12.54    1.65
  -8   6 -16   11.16    1.60
 -11  -7  16   14.95    2.29
 -11  -7  16   13.99    2.17
 -11   7  16   15.34    1.96
  -9  -7  16   -0.34    1.47
  -9  -7  16    3.26    1.48
  -9   7  16    1.37    1.33
  -7  -7  16    2.50    1.33
  -7  -7  16   -0.84    1.30
   7   7 -16    0.10    0.84
  -7   7  16   -1.67    1.08
  -5  -7  16   16.41    2.39
  -5  -7  16   20.61    2.35
   5   7 -16   20.10    1.61
  -5   7  16   19.24    2.09
  -3  -7  16   39.74    2.90
  -3  -7  16   37.66    2.68
  -3   7  16   37.26    2.53
   3   7 -16   36.97    2.05
  -1  -7  16    1.09    1.04
  -1  -7  16    0.13    1.06
   1  -7 -16    0.97    0.65
  -1   7  16    0.97    1.00
   1   7 -16   -0.58    0.64
  -1  -7 -16    2.75    0.74
   1  -7  16    2.33    1.12
   1  -7  16    3.66    1.21
  -1   7 -16    0.72    0.69
   1   7  16    2.99    1.06
   3  -7  16   10.06    1.50
   3  -7  16   10.93    1.62
  -3  -7 -16   11.93    1.23
   3   7  16    7.40    1.30
  -3   7 -16    7.00    1.02
   5  -7  16   49.48    3.11
  -5  -7 -16   47.65    2.25
   5   7  16   45.55    2.84
  -5   7 -16   47.67    2.48
  -7  -7 -16    4.16    0.85
   7  -7  16    4.41    1.37
   7   7  16    5.20    1.33
  -7   7 -16    2.69    0.94
 -10  -8  16   60.42    3.92
 -10  -8  16   59.11    4.39
 -10   8  16   58.18    3.59
  -8  -8  16   20.89    2.79
  -8  -8  16   27.33    2.82
   8   8 -16   21.61    1.88
  -8   8  16   21.87    2.47
  -6  -8  16    4.26    1.54
  -6  -8  16    2.49    1.38
   6   8 -16    4.81    0.99
  -6   8  16    5.57    1.36
  -4  -8  16   -0.68    1.15
  -4  -8  16    1.89    1.32
   4   8 -16    0.97    0.85
  -4   8  16    1.74    1.11
  -2  -8  16    2.64    1.28
   2  -8 -16    3.28    0.77
  -2  -8  16   -1.51    1.14
   2   8 -16    1.58    0.79
  -2   8  16    1.54    1.08
   0  -8  16   74.02    3.67
   0  -8  16   66.79    3.68
   0  -8 -16   73.01    2.84
   0   8 -16   65.63    3.01
   0   8  16   68.69    3.48
   2  -8  16   27.55    2.58
   2  -8  16   30.55    2.53
  -2  -8 -16   30.90    1.80
   2   8  16   30.56    2.39
  -2   8 -16   33.77    2.02
   4  -8  16    2.76    1.36
  -4  -8 -16    2.40    0.80
  -4   8 -16    3.19    0.95
   4   8  16    2.40    1.13
   6  -8  16   48.41    3.22
  -6  -8 -16   50.84    2.41
   6   8  16   51.03    3.08
  -6   8 -16   48.09    2.63
  -7  -9  16   12.38    2.00
  -7  -9  16   11.39    2.01
  -7   9  16   11.09    1.75
   7   9 -16   11.79    1.69
  -5  -9  16   85.15    4.52
  -5  -9  16   90.03    4.45
   5   9 -16   87.58    3.63
  -5   9  16   89.46    4.14
  -3  -9  16   64.05    3.85
  -3  -9  16   64.11    3.68
   3   9 -16   66.38    3.00
  -3   9  16   66.34    3.47
  -1  -9  16    2.42    1.21
  -1  -9  16    3.36    1.39
   1  -9 -16    2.67    0.86
   1   9 -16    2.63    0.87
  -1   9  16    4.73    1.32
   1  -9  16   18.44    2.51
  -1  -9 -16   14.06    1.47
   1  -9  16   15.53    2.17
   1   9  16   18.51    2.09
  -1   9 -16   15.37    1.61
   3  -9  16   57.43    3.44
  -3  -9 -16   57.87    2.52
   3   9  16   52.34    3.11
  -3   9 -16   50.81    2.70
  -5  -9 -16   29.47    1.90
   5  -9  16   35.83    2.84
   5   9  16   31.54    2.58
  -5   9 -16   29.02    2.16
  -6 -10  16   44.33    3.54
  -6 -10  16   46.66    3.53
   6  10 -16   46.34    2.61
  -6  10  16   44.44    2.99
  -4 -10  16    8.08    1.73
  -4 -10  16    9.39    1.78
  -4  10  16    6.24    1.46
   4  10 -16    4.42    1.16
  -2 -10  16   39.36    3.10
  -2 -10  16   35.07    2.94
   2 -10 -16   37.29    2.06
  -2  10  16   36.07    2.76
   2  10 -16   34.58    2.23
   0 -10  16   88.44    4.47
   0 -10  16  101.80    4.56
   0 -10 -16   91.19    3.57
   0  10 -16   85.08    3.79
   0  10  16   95.27    4.21
  -2 -10 -16   48.06    2.47
   2 -10  16   61.08    3.53
   2 -10  16   49.98    3.36
   2  10  16   55.64    3.15
  -2  10 -16   52.17    2.76
   4 -10  16    3.08    1.52
  -4 -10 -16    2.89    0.91
   4  10  16    0.19    1.31
 -12   0  17    2.74    1.62
 -12   0  17    2.86    1.81
 -10   0  17    0.50    1.32
 -10   0  17    1.03    1.43
  -8   0  17   -0.57    1.12
  -8   0  17   -0.25    1.37
  -6   0  17   -1.42    0.94
  -6   0  17    0.27    1.32
  -4   0  17    2.23    1.14
  -4   0  17    0.97    0.99
  -2   0  17    0.91    0.98
   0   0  17    1.21    0.89
   0   0  17    0.33    1.03
   2   0  17    0.93    0.96
   2   0  17    1.19    1.30
   4   0  17   -0.68    0.97
  -4   0 -17    0.59    0.74
  -6   0 -17    0.89    0.73
  -6   0 -17   -0.88    0.79
   6   0  17   -1.69    0.89
  -8   0 -17    1.80    0.82
   8   0  17    1.17    1.17
  -8   0 -17    1.20    0.95
 -11  -1  17    1.59    1.57
 -11  -1  17    2.85    1.51
 -11   1  17    1.57    1.64
 -11   1  17    0.40    1.37
  -9  -1  17    0.06    1.18
  -9  -1  17    0.23    1.37
  -9   1  17    1.38    1.28
  -9   1  17    0.17    1.39
  -7  -1  17   -0.16    1.24
  -7  -1  17   -0.73    1.09
  -7   1  17   -0.44    1.09
  -7   1  17    0.94    1.24
  -5  -1  17   39.06    2.85
  -5  -1  17   41.06    2.83
  -5   1  17   43.21    2.90
  -5   1  17   40.16    2.77
  -3  -1  17    4.54    1.25
  -3  -1  17    0.42    1.06
  -3   1  17    1.81    1.10
  -3   1  17    4.68    1.22
  -1  -1  17    2.38    1.08
  -1  -1  17    1.01    0.93
  -1   1  17   -0.31    0.96
  -1   1  17    1.00    1.14
   1  -1  17    6.82    1.29
   1  -1  17    5.96    1.16
   1   1  17    6.68    1.16
   1   1  17    6.79    1.23
   3  -1  17   39.23    2.68
  -3  -1 -17   40.74    2.54
   3   1  17   37.95    2.60
  -3   1 -17   40.96    2.02
  -5  -1 -17    1.37    0.72
   5  -1  17    0.63    0.97
  -5   1 -17   -0.62    0.77
   5   1  17    2.99    1.03
  -5   1 -17    0.79    0.74
  -7  -1 -17    5.44    0.90
   7  -1  17    4.15    1.18
  -7   1 -17    4.79    1.00
   7   1  17    5.43    1.29
  -7   1 -17    5.92    0.90
   9  -1  17    0.16    1.24
  -9  -1 -17   -0.83    0.78
   9   1  17   -0.04    1.24
  -9   1 -17   -0.52    0.92
  -9   1 -17   -0.37    0.82
 -10  -2  17   19.01    2.43
 -10  -2  17   16.08    2.08
 -10   2  17   19.41    2.84
 -10   2  17   17.03    2.47
  -8  -2  17   16.76    2.33
  -8  -2  17   18.79    2.68
  -8   2  17   16.19    2.58
  -8   2  17   19.19    2.33
  -6  -2  17    7.85    1.52
  -6  -2  17    5.17    1.45
  -6   2  17    6.35    1.53
  -6   2  17    8.03    1.48
  -4  -2  17   24.14    2.22
  -4  -2  17   22.07    2.33
  -4   2  17   20.20    2.11
  -4   2  17   20.01    2.25
  -2  -2  17   52.48    3.08
  -2  -2  17   54.77    3.18
  -2   2  17   52.77    3.08
  -2   2  17   57.76    3.00
   0  -2  17   19.53    2.06
   0  -2  17   18.84    2.00
   0   2 -17   24.02    1.74
   0   2  17   23.68    1.98
   0   2  17   17.67    2.00
   2  -2  17    2.66    1.03
   2  -2  17    2.17    1.03
   2   2  17    4.05    1.13
  -2   2 -17    1.87    0.78
  -4  -2 -17   30.65    1.71
   4  -2  17   32.56    2.48
   4   2  17   33.41    2.46
  -4   2 -17   35.12    1.91
  -6  -2 -17   50.74    2.36
   6  -2  17   47.20    2.99
   6   2  17   49.01    3.01
  -6   2 -17   52.88    2.46
  -6   2 -17   53.48    2.50
  -8  -2 -17    3.03    0.86
   8  -2  17    3.41    1.32
  -8   2 -17    3.00    0.91
  -8   2 -17    3.18    0.99
   8   2  17    4.67    1.33
 -11  -3  17   19.56    2.77
 -11  -3  17   16.27    2.28
 -11   3  17   16.57    2.31
 -11   3  17   12.35    1.86
  -9  -3  17    6.04    1.66
  -9  -3  17    5.60    1.50
  -9   3  17    5.67    1.53
  -9   3  17    6.65    1.56
  -7  -3  17   53.38    3.24
  -7  -3  17   53.85    3.57
  -7   3  17   49.07    3.15
  -7   3  17   51.88    3.35
  -5  -3  17   59.33    3.51
  -5  -3  17   55.61    3.32
  -5   3  17   61.48    3.38
  -5   3  17   63.18    3.33
  -3  -3  17    4.33    1.24
  -3  -3  17    1.89    1.08
  -3   3  17    2.05    1.16
  -3   3  17    4.53    1.20
  -1  -3  17   11.24    1.54
  -1  -3  17    7.25    1.34
   1   3 -17   12.68    1.77
  -1   3  17    8.99    1.38
   1  -3  17   11.36    1.54
   1  -3  17   11.24    1.50
   1   3  17   14.94    1.91
  -1   3 -17   13.43    1.40
   3  -3  17   49.53    3.17
   3  -3  17   61.33    3.21
  -3  -3 -17   59.79    2.43
  -3   3 -17   61.34    2.62
   3   3  17   59.24    3.23
   5  -3  17   24.57    2.25
  -5  -3 -17   24.71    1.58
  -5   3 -17   19.00    1.70
   5   3  17   18.19    2.10
  -7  -3 -17    4.86    0.90
   7  -3  17    6.09    1.42
  -7   3 -17    4.46    0.97
   7   3  17    5.31    1.40
  -9  -3 -17   31.76    2.02
   9  -3  17   31.66    2.86
   9   3  17   30.86    2.86
  -9   3 -17   32.04    2.01
 -10  -4  17  109.63    5.45
 -10  -4  17  101.02    5.11
 -10   4  17  108.70    5.05
 -10   4  17  112.83    5.27
  -8  -4  17   61.92    3.62
  -8  -4  17   53.46    3.77
  -8   4  17   59.15    3.62
  -8   4  17   57.89    3.40
  -6  -4  17    3.91    1.32
  -6  -4  17    5.91    1.42
  -6   4  17    3.95    1.27
  -4  -4  17   23.78    2.48
  -4  -4  17   22.18    2.34
  -4   4  17   22.15    2.27
  -2  -4  17   41.20    2.76
  -2  -4  17   43.83    2.90
   2   4 -17   41.73    2.06
  -2   4  17   37.42    2.65
   0  -4  17   63.34    3.43
   0  -4  17   68.22    3.52
   0   4 -17   71.10    2.82
   0   4  17   61.48    3.40
  -2  -4 -17    5.23    0.84
   2  -4  17    3.48    1.14
   2  -4  17    5.07    1.22
   2   4  17    3.50    1.13
  -2   4 -17    5.23    0.92
   4  -4  17    8.88    1.52
  -4  -4 -17    9.29    1.28
   4   4  17    8.80    1.43
  -4   4 -17    9.90    1.15
  -6  -4 -17   74.59    3.04
   6  -4  17   76.14    3.88
   6   4  17   72.77    3.75
  -6   4 -17   75.77    3.24
  -8  -4 -17   74.37    3.11
   8  -4  17   74.24    3.94
   8   4  17   77.13    3.93
  -8   4 -17   80.05    3.42
  -9  -5  17    9.97    1.96
  -9  -5  17   15.69    2.11
  -9   5  17   10.50    1.76
  -7  -5  17   60.34    3.58
  -7  -5  17   57.49    3.79
  -7   5  17   57.92    3.42
  -5  -5  17   42.90    3.15
  -5  -5  17   48.24    3.11
  -5   5  17   43.31    2.91
  -3  -5  17   26.03    2.45
  -3  -5  17   26.90    2.55
   3   5 -17   27.68    1.77
  -3   5  17   23.44    2.34
  -1  -5  17    2.68    1.21
  -1  -5  17    0.60    1.07
   1   5 -17    1.46    0.81
  -1   5  17    3.36    1.20
  -1  -5 -17   74.09    2.94
   1  -5  17   74.84    3.77
   1  -5  17   71.87    3.71
  -1   5 -17   73.37    3.07
   1   5  17   72.16    3.65
   3  -5  17   40.71    2.91
   3  -5  17   42.26    2.87
  -3  -5 -17   46.58    2.15
   3   5  17   44.84    2.84
  -3   5 -17   43.06    2.32
   5  -5  17   18.41    2.26
  -5  -5 -17   15.60    1.53
   5   5  17   13.64    2.04
  -5   5 -17   16.37    1.67
   7  -5  17    1.64    1.29
  -7  -5 -17    2.79    0.87
  -7   5 -17    4.20    1.02
   7   5  17    3.75    1.30
  -8  -6  17   25.15    2.98
  -8  -6  17   25.37    2.83
  -8   6  17   27.55    2.64
  -6  -6  17    1.67    1.36
  -6  -6  17    3.30    1.40
  -6   6  17    2.27    1.25
  -4  -6  17   11.27    1.68
  -4  -6  17    9.83    1.72
   4   6 -17    9.48    1.43
  -4   6  17   11.83    1.78
  -2  -6  17   95.61    4.52
  -2  -6  17   97.78    4.67
  -2   6  17  100.61    4.49
   2   6 -17   99.81    3.79
   0  -6  17  103.26    4.72
   0  -6  17   98.87    4.66
   0   6 -17  107.67    4.03
   0   6  17  110.80    4.68
   2  -6  17    0.94    1.19
   2  -6  17    0.97    1.11
  -2  -6 -17   -0.62    0.74
  -2   6 -17    1.46    0.86
   2   6  17    2.91    1.17
   4  -6  17   50.69    3.18
  -4  -6 -17   52.54    2.43
  -4   6 -17   52.09    2.62
   4   6  17   47.18    2.97
   6  -6  17   71.57    3.84
  -6  -6 -17   73.79    3.02
  -6   6 -17   71.66    3.26
   6   6  17   70.89    3.74
  -7  -7  17   29.91    2.97
  -7  -7  17   25.16    3.00
  -7   7  17   29.67    2.62
  -5  -7  17   74.89    4.01
  -5  -7  17   74.81    4.11
  -5   7  17   69.07    3.78
   5   7 -17   69.91    3.09
  -3  -7  17   26.72    2.61
  -3  -7  17   25.35    2.72
  -3   7  17   23.89    2.42
   3   7 -17   26.45    1.90
  -1  -7  17    6.58    1.56
  -1  -7  17    6.58    1.46
  -1   7  17   10.95    1.56
   1   7 -17    9.54    1.17
   1  -7  17   51.45    3.30
  -1  -7 -17   56.91    2.42
   1  -7  17   51.73    3.24
  -1   7 -17   49.74    2.60
   1   7  17   54.26    3.15
   3  -7  17   35.70    2.86
  -3  -7 -17   32.76    2.03
  -3   7 -17   37.87    2.37
   3   7  17   39.02    2.66
   5  -7  17   13.98    1.90
  -5  -7 -17   13.65    1.50
   5   7  17   14.27    1.79
  -5   7 -17   12.63    1.71
  -6  -8  17    3.48    1.68
  -6  -8  17    2.64    1.55
  -6   8  17    4.51    1.42
   6   8 -17    1.67    1.01
  -4  -8  17   22.57    2.71
  -4  -8  17   29.73    2.86
  -4   8  17   19.05    2.42
   4   8 -17   24.99    1.95
  -2  -8  17   33.14    2.83
  -2  -8  17   34.21    2.90
   2   8 -17   32.46    2.16
  -2   8  17   37.61    2.79
   0  -8  17   16.03    2.38
   0  -8  17   21.50    2.66
   0   8  17   20.84    2.34
   0   8 -17   22.58    1.83
   2  -8  17    4.26    1.36
   2  -8  17    8.18    1.58
   2   8  17    5.50    1.34
  -2   8 -17    4.15    0.99
  -4  -8 -17   20.31    1.78
   4  -8  17   19.64    2.79
   4   8  17   26.59    2.43
  -4   8 -17   20.43    1.98
  -3  -9  17    4.78    1.60
  -3  -9  17    2.59    1.57
   3   9 -17    5.28    1.09
  -3   9  17    4.50    1.46
  -1  -9  17    7.62    1.68
  -1  -9  17    7.55    1.53
  -1   9  17    8.25    1.58
   1   9 -17    5.17    1.13
   1  -9  17   -2.12    1.45
   1   9  17    0.19    1.29
  -8   0  18   13.14    2.07
  -8   0  18   10.31    1.73
  -6   0  18   38.63    3.07
  -6   0  18   31.93    2.86
  -4   0  18  142.28    5.93
  -4   0  18  144.60    5.89
  -2   0  18   57.50    3.36
  -2   0  18   61.92    3.45
   0   0  18    4.48    1.24
   0   0  18    2.97    1.30
   2   0  18   14.66    2.11
   4   0  18   22.59    2.32
   6   0  18   75.50    3.90
  -9  -1  18   47.10    3.51
  -9  -1  18   47.46    3.74
  -9   1  18   45.89    3.76
  -9   1  18   49.27    3.44
  -7  -1  18   30.94    3.05
  -7  -1  18   26.82    2.77
  -7   1  18   25.64    3.01
  -7   1  18   31.52    2.74
  -5  -1  18   69.94    3.83
  -5  -1  18   72.68    3.98
  -5   1  18   71.46    3.94
  -5   1  18   67.98    3.82
  -3  -1  18    0.05    1.18
  -3  -1  18    3.95    1.29
  -3   1  18    2.10    1.23
  -3   1  18    1.46    1.16
  -1  -1  18   56.86    3.33
  -1  -1  18   57.64    3.40
  -1   1  18   58.92    3.41
  -1   1  18   67.27    3.41
   1  -1  18  100.24    4.70
   1  -1  18  113.38    4.58
   1   1  18   98.69    4.65
   3  -1  18   29.88    2.62
   3   1  18   33.46    2.64
   5  -1  18   -0.88    1.09
   5   1  18    2.70    1.22
  -8  -2  18    5.03    1.69
  -8  -2  18    4.23    1.65
  -8   2  18    0.67    1.66
  -8   2  18    5.38    1.60
  -6  -2  18   18.67    2.51
  -6  -2  18   25.83    2.87
  -6   2  18   19.77    2.63
  -6   2  18   16.00    2.39
  -4  -2  18   33.48    2.78
  -4  -2  18   26.94    2.81
  -4   2  18   34.38    2.70
  -4   2  18   38.43    3.81
  -2  -2  18   26.94    2.63
  -2  -2  18   18.99    2.30
  -2   2  18   20.78    2.30
   0  -2  18    8.68    1.46
   0  -2  18    5.48    1.33
   0   2  18    6.72    1.39
   2  -2  18    2.41    1.21
   2  -2  18    2.57    1.19
   2   2  18    2.68    1.25
   4  -2  18   41.14    2.81
   4   2  18   34.88    2.72
   6  -2  18   42.04    2.97
  -6   2 -18   44.47    2.53
   6   2  18   33.67    2.85
  -7  -3  18   30.54    2.93
  -7  -3  18   32.42    3.09
  -7   3  18   29.94    2.80
  -5  -3  18    6.34    1.57
  -5  -3  18    7.71    1.56
  -5   3  18    5.52    1.38
  -3  -3  18    2.75    1.31
  -3  -3  18    3.41    1.43
  -3   3  18    6.93    1.40
  -1  -3  18    2.62    1.24
  -1  -3  18    4.13    1.35
  -1   3  18    3.50    1.25
   1  -3  18   83.47    4.06
   1  -3  18   83.78    4.11
   1   3  18   81.08    4.07
   3  -3  18   48.22    3.18
   3   3  18   49.24    3.14
  -3   3 -18   52.74    2.55
   5  -3  18    8.16    1.61
   5   3  18    9.52    1.55
  -5   3 -18   12.93    1.69
  -8  -4  18    7.60    1.82
  -8   4  18    8.58    1.81
  -6  -4  18   18.37    2.75
  -6  -4  18   19.77    2.64
  -6   4  18   17.50    2.18
  -4  -4  18   19.26    2.54
  -4  -4  18   27.25    2.68
  -4   4  18   21.48    2.46
  -2  -4  18    0.37    1.28
  -2   4  18   -0.12    1.13
   0  -4  18    0.88    1.23
   0  -4  18   -0.36    1.18
   0   4  18    0.76    1.15
   2  -4  18    0.91    1.18
   2  -4  18    1.04    1.30
  -2   4 -18    1.44    0.93
   2   4  18   -1.00    1.09
   4  -4  18    1.62    1.24
  -4   4 -18   -0.37    0.89
   4   4  18    0.87    1.18
  -7  -5  18    3.84    1.68
  -7   5  18    0.83    1.28
  -5  -5  18   -0.33    1.40
  -5  -5  18    1.09    1.47
  -5   5  18    1.34    1.37
  -3  -5  18   -0.23    1.37
  -3  -5  18    2.52    1.41
  -3   5  18    1.91    1.17
  -1  -5  18    0.16    1.17
  -1  -5  18    0.89    1.32
   1   5 -18    3.90    1.39
  -1   5  18    0.37    1.16
   1  -5  18    2.14    1.38
   1  -5  18    2.36    1.33
   1   5  18    2.01    1.29
  -1   5 -18    3.40    1.02
   3  -5  18    3.13    1.39
  -3   5 -18    1.58    0.98
   3   5  18    1.28    1.16
  -4  -6  18    0.29    1.39
  -4  -6  18    0.74    1.44
  -4   6  18    3.39    1.33
  -2  -6  18    1.33    1.33
  -2  -6  18    3.95    1.47
  -2   6  18    4.32    1.42
   2   6 -18    2.04    1.05
   0  -6  18   20.92    2.54
   0  -6  18   18.89    2.59
   0   6 -18   22.56    1.91
   0   6  18   17.91    2.37
   2  -6  18    3.52    1.56
   2  -6  18    4.34    1.39
   2   6  18    5.48    1.39
  -2   6 -18    2.88    1.06
  -4   0  19    0.88    1.43
  -4   0  19    0.33    1.46
  -2   0  19    1.20    1.26
   0   0  19    0.20    1.31
   2   0  19   -0.05    1.52
  -3  -1  19    0.69    1.36
  -3  -1  19   -2.22    1.46
  -3   1  19   -1.84    1.33
  -1  -1  19    1.24    1.34
  -1  -1  19    2.39    1.38
  -1   1  19    2.16    1.37
   1  -1  19    3.25    1.43
   1   1  19   -0.77    1.34
  -2  -2  19   14.88    1.96
  -2  -2  19   13.71    1.84
  -2   2  19   11.76    1.73
   0  -2  19    1.73    1.35
   0  -2  19    1.99    1.36
   0   2  19    2.67    1.29
   0   0   0    0.00    0.00
;
_shelx_hkl_checksum              76157
_olex2_submission_special_instructions 'No special instructions were received'
loop_
_space_group_symop_operation_xyz
'x, y, z'
'-x, y, -z+1/2'
'x+1/2, y+1/2, z'
'-x+1/2, y+1/2, -z+1/2'
'-x, -y, -z'
'x, -y, z-1/2'
'-x+1/2, -y+1/2, -z'
'x+1/2, -y+1/2, z-1/2'
loop_
_atom_site_label
_atom_site_type_symbol
_atom_site_fract_x
_atom_site_fract_y
_atom_site_fract_z
_atom_site_U_iso_or_equiv
_atom_site_adp_type
_atom_site_occupancy
_atom_site_site_symmetry_order
_atom_site_calc_flag
Sm1 Sm 0.18794(2) 0.04858(2) 0.15578(2) 0.00360(2) Uani 1 1 d
S1 S 0.36291(3) 0.29843(3) 0.13879(3) 0.00380(6) Uani 1 1 d
S3 S -0.12768(3) 0.51353(3) -0.07719(3) 0.00435(6) Uani 1 1 d
S2 S -0.07792(3) 0.15037(3) 0.08028(3) 0.00431(6) Uani 1 1 d
O13 O 0.32019(9) 0.34201(10) 0.02450(11) 0.00722(19) Uani 1 1 d
O11 O 0.30617(9) 0.20207(11) 0.18362(11) 0.0091(2) Uani 1 1 d
O12 O 0.37991(9) 0.38992(10) 0.22730(11) 0.0087(2) Uani 1 1 d
O14 O 0.46646(9) 0.25101(10) 0.11758(11) 0.00638(18) Uani 1 1 d
O33 O -0.08089(9) 0.63303(10) -0.06009(11) 0.00742(19) Uani 1 1 d
O34 O -0.04155(9) 0.43194(10) -0.09630(11) 0.00593(18) Uani 1 1 d
O24 O -0.07657(9) 0.27824(10) 0.03928(12) 0.0084(2) Uani 1 1 d
O21 O 0.02058(10) 0.11814(12) 0.12361(12) 0.0119(2) Uani 1 1 d
O31 O -0.17686(10) 0.48117(11) 0.02887(12) 0.0090(2) Uani 1 1 d
O32 O -0.18626(9) 0.51974(11) -0.18858(12) 0.0086(2) Uani 1 1 d
O22 O -0.14829(10) 0.15082(11) 0.17291(12) 0.0096(2) Uani 1 1 d
O23 O -0.11274(11) 0.08230(12) -0.02284(12) 0.0143(2) Uani 1 1 d
B1 B -0.00024(13) 0.32987(14) -0.02847(16) 0.0058(3) Uani 1 1 d
loop_
_atom_site_aniso_label
_atom_site_aniso_U_11
_atom_site_aniso_U_22
_atom_site_aniso_U_33
_atom_site_aniso_U_23
_atom_site_aniso_U_13
_atom_site_aniso_U_12
Sm1 0.00386(3) 0.00395(3) 0.00298(3) 0.00016(2) 0.00008(2) -0.00027(2)
S1 0.00414(13) 0.00347(12) 0.00380(13) -0.00006(10) 0.00028(11) 0.00015(10)
S3 0.00407(13) 0.00385(12) 0.00505(14) -0.00059(10) -0.00029(11) 0.00055(10)
S2 0.00486(14) 0.00403(12) 0.00408(13) 0.00044(10) 0.00055(11) -0.00034(10)
O13 0.0075(5) 0.0082(4) 0.0059(5) 0.0027(4) -0.0006(4) 0.0010(4)
O11 0.0088(5) 0.0095(5) 0.0089(5) 0.0029(4) 0.0005(4) -0.0040(4)
O12 0.0089(5) 0.0078(4) 0.0092(5) -0.0050(4) -0.0014(4) 0.0014(4)
O14 0.0047(4) 0.0071(4) 0.0072(5) -0.0025(4) -0.0009(4) 0.0014(3)
O33 0.0095(5) 0.0036(4) 0.0087(5) -0.0004(3) -0.0034(4) -0.0005(3)
O34 0.0054(4) 0.0046(4) 0.0078(5) 0.0008(3) 0.0010(4) 0.0021(3)
O24 0.0090(5) 0.0042(4) 0.0125(5) 0.0024(4) 0.0053(4) 0.0007(4)
O21 0.0071(5) 0.0175(6) 0.0113(5) 0.0047(4) 0.0020(4) 0.0052(4)
O31 0.0091(5) 0.0085(4) 0.0098(5) 0.0015(4) 0.0036(4) 0.0025(4)
O32 0.0084(5) 0.0088(4) 0.0083(5) -0.0016(4) -0.0035(4) 0.0014(4)
O22 0.0087(5) 0.0118(5) 0.0090(5) 0.0041(4) 0.0049(4) 0.0023(4)
O23 0.0195(7) 0.0140(5) 0.0094(5) -0.0061(4) 0.0007(5) -0.0086(5)
B1 0.0068(6) 0.0044(5) 0.0061(6) 0.0002(5) 0.0002(5) -0.0002(5)
loop_
_atom_type_symbol
_atom_type_description
_atom_type_scat_dispersion_real
_atom_type_scat_dispersion_imag
_atom_type_scat_source
B B 0.0013 0.0007 'International Tables Vol C Tables 4.2.6.8 and 6.1.1.4'
O O 0.0106 0.0060 'International Tables Vol C Tables 4.2.6.8 and 6.1.1.4'
S S 0.1246 0.1234 'International Tables Vol C Tables 4.2.6.8 and 6.1.1.4'
Sm Sm -0.1638 3.4418 'International Tables Vol C Tables 4.2.6.8 and 6.1.1.4'
loop_
_geom_angle_atom_site_label_1
_geom_angle_atom_site_label_2
_geom_angle_atom_site_label_3
_geom_angle
_geom_angle_site_symmetry_1
_geom_angle_site_symmetry_3
O13 Sm1 O11 73.40(4) 7 .
O13 Sm1 O12 147.75(4) 7 4_545
O13 Sm1 O21 72.85(4) 7 .
O13 Sm1 O31 71.55(4) 7 3_545
O13 Sm1 O32 138.84(4) 7 8_556
O11 Sm1 O12 138.64(4) . 4_545
O11 Sm1 O21 113.31(5) . .
O11 Sm1 O31 77.82(4) . 3_545
O11 Sm1 O32 73.35(4) . 8_556
O12 Sm1 O31 112.53(4) 4_545 3_545
O12 Sm1 O32 70.24(4) 4_545 8_556
O21 Sm1 O12 86.63(4) . 4_545
O21 Sm1 O31 137.30(4) . 3_545
O21 Sm1 O32 143.97(4) . 8_556
O32 Sm1 O31 78.31(4) 8_556 3_545
O22 Sm1 O13 115.20(5) 2 7
O22 Sm1 O11 73.24(4) 2 .
O22 Sm1 O12 79.97(4) 2 4_545
O22 Sm1 O21 71.99(5) 2 .
O22 Sm1 O31 146.16(4) 2 3_545
O22 Sm1 O32 76.91(5) 2 8_556
O23 Sm1 O13 78.81(5) 5 7
O23 Sm1 O11 146.27(5) 5 .
O23 Sm1 O12 71.90(5) 5 4_545
O23 Sm1 O21 75.13(5) 5 .
O23 Sm1 O31 75.51(5) 5 3_545
O23 Sm1 O32 120.08(5) 5 8_556
O23 Sm1 O22 137.52(5) 5 2
O13 S1 O11 111.69(7) . .
O13 S1 O14 107.88(7) . .
O11 S1 O14 107.10(7) . .
O12 S1 O13 112.56(7) . .
O12 S1 O11 112.56(8) . .
O12 S1 O14 104.53(7) . .
O33 S3 O34 104.58(7) . .
O31 S3 O33 110.04(8) . .
O31 S3 O34 110.87(7) . .
O32 S3 O33 105.65(7) . .
O32 S3 O34 107.52(7) . .
O32 S3 O31 117.33(8) . .
O21 S2 O24 108.39(8) . .
O21 S2 O22 113.84(8) . .
O22 S2 O24 103.19(7) . .
O23 S2 O24 106.87(8) . .
O23 S2 O21 112.26(9) . .
O23 S2 O22 111.60(8) . .
S1 O13 Sm1 156.98(8) . 7
S1 O11 Sm1 151.92(8) . .
S1 O12 Sm1 148.18(8) . 4
B1 O14 S1 131.33(11) 7 .
B1 O33 S3 128.78(10) 5_565 .
B1 O34 S3 133.10(11) . .
B1 O24 S2 124.57(11) . .
S2 O21 Sm1 168.45(9) . .
S3 O31 Sm1 140.83(7) . 3_455
S3 O32 Sm1 155.37(8) . 8_455
S2 O22 Sm1 140.95(8) . 2
S2 O23 Sm1 167.00(9) . 5
O14 B1 O33 112.29(13) 7 5_565
O14 B1 O34 106.43(13) 7 .
O34 B1 O33 110.54(12) . 5_565
O24 B1 O14 111.20(13) . 7
O24 B1 O33 107.33(13) . 5_565
O24 B1 O34 109.03(13) . .
loop_
_geom_bond_atom_site_label_1
_geom_bond_atom_site_label_2
_geom_bond_distance
_geom_bond_site_symmetry_2
Sm1 O13 2.3624(12) 7
Sm1 O11 2.3922(12) .
Sm1 O12 2.4509(12) 4_545
Sm1 O21 2.4187(13) .
Sm1 O31 2.5098(13) 3_545
Sm1 O32 2.4843(12) 8_556
Sm1 O22 2.3293(12) 2
Sm1 O23 2.3021(13) 5
S1 O13 1.4532(12) .
S1 O11 1.4542(13) .
S1 O12 1.4478(12) .
S1 O14 1.5422(12) .
S3 O33 1.5185(12) .
S3 O34 1.5252(12) .
S3 O31 1.4407(13) .
S3 O32 1.4327(13) .
S2 O24 1.5366(12) .
S2 O21 1.4440(13) .
S2 O22 1.4497(13) .
S2 O23 1.4430(13) .
O13 Sm1 2.3624(12) 7
O12 Sm1 2.4509(12) 4
O14 B1 1.453(2) 7
O33 B1 1.495(2) 5_565
O34 B1 1.485(2) .
O24 B1 1.447(2) .
O31 Sm1 2.5098(13) 3_455
O32 Sm1 2.4844(12) 8_455
O22 Sm1 2.3293(12) 2
O23 Sm1 2.3021(13) 5
B1 O14 1.453(2) 7
B1 O33 1.495(2) 5_565
