#------------------------------------------------------------------------------
#$Date: 2019-11-08 00:30:46 +0200 (Fri, 08 Nov 2019) $
#$Revision: 224274 $
#$URL: file:///home/coder/svn-repositories/cod/cif/7/04/92/7049226.cif $
#------------------------------------------------------------------------------
#
# This file is available in the Crystallography Open Database (COD),
# http://www.crystallography.net/
#
# All data on this site have been placed in the public domain by the
# contributors.
#
data_7049226
loop_
_publ_author_name
'Netzsch, Philip'
'H\"ammer, Matthias'
'Gross, Peter'
'Bariss, Harijs'
'Block, Theresa'
'Heletta, Lukas'
'P\"ottgen, Rainer'
'Bruns, J\"orn'
'Huppertz, Hubert'
'H\"oppe, Henning A'
_publ_section_title
;
 RE<sub>2</sub>[B<sub>2</sub>(SO<sub>4</sub>)<sub>6</sub>] (RE = Y, La-Nd,
 Sm, Eu, Tb-Lu): a silicate-analogous host structure with weak
 coordination behaviour.
;
_journal_issue                   13
_journal_name_full
'Dalton transactions (Cambridge, England : 2003)'
_journal_page_first              4387
_journal_page_last               4397
_journal_paper_doi               10.1039/c9dt00445a
_journal_volume                  48
_journal_year                    2019
_chemical_formula_sum            'B2 Lu2 O24 S6'
_chemical_formula_weight         947.92
_space_group_crystal_system      monoclinic
_space_group_IT_number           15
_space_group_name_Hall           '-C 2yc'
_space_group_name_H-M_alt        'C 1 2/c 1'
_symmetry_space_group_name_Hall  '-C 2yc'
_symmetry_space_group_name_H-M   'C 1 2/c 1'
_audit_creation_method           SHELXL-2014/7
_cell_angle_alpha                90
_cell_angle_beta                 93.369(8)
_cell_angle_gamma                90
_cell_formula_units_Z            4
_cell_length_a                   13.469(3)
_cell_length_b                   11.364(3)
_cell_length_c                   10.799(3)
_cell_measurement_reflns_used    3251
_cell_measurement_temperature    300(2)
_cell_measurement_theta_max      33.550
_cell_measurement_theta_min      2.347
_cell_volume                     1650.1(7)
_computing_structure_refinement  'SHELXL-2014/7 (Sheldrick, 2014)'
_diffrn_ambient_temperature      300(2)
_diffrn_measured_fraction_theta_full 1.000
_diffrn_measured_fraction_theta_max 0.998
_diffrn_measurement_device_type  'Bruker D8 Venture'
_diffrn_measurement_method       'omega scan'
_diffrn_radiation_monochromator  graphite
_diffrn_radiation_source         'fine-focus sealed tube'
_diffrn_radiation_type           MoK\a
_diffrn_radiation_wavelength     0.71073
_diffrn_reflns_av_R_equivalents  0.0937
_diffrn_reflns_av_unetI/netI     0.0407
_diffrn_reflns_Laue_measured_fraction_full 1.000
_diffrn_reflns_Laue_measured_fraction_max 0.998
_diffrn_reflns_limit_h_max       20
_diffrn_reflns_limit_h_min       -20
_diffrn_reflns_limit_k_max       17
_diffrn_reflns_limit_k_min       -17
_diffrn_reflns_limit_l_max       16
_diffrn_reflns_limit_l_min       -16
_diffrn_reflns_number            29911
_diffrn_reflns_point_group_measured_fraction_full 1.000
_diffrn_reflns_point_group_measured_fraction_max 0.998
_diffrn_reflns_theta_full        25.242
_diffrn_reflns_theta_max         33.550
_diffrn_reflns_theta_min         2.347
_exptl_absorpt_coefficient_mu    12.795
_exptl_absorpt_correction_type   multi-scan
_exptl_absorpt_process_details
; 
 multi-scan absorption correction using SADABS 
(G. M. Sheldrick, (1996). SADABS. Program for Empirical 
Absorption Correction. University of G\"ottingen, Germany.)
;
_exptl_crystal_colour            colourless
_exptl_crystal_density_diffrn    3.816
_exptl_crystal_description       block
_exptl_crystal_F_000             1760
_exptl_crystal_size_max          0.10
_exptl_crystal_size_mid          0.05
_exptl_crystal_size_min          0.04
_exptl_transmission_factor_max   0.7466
_exptl_transmission_factor_min   0.4652
_refine_diff_density_max         1.831
_refine_diff_density_min         -1.257
_refine_diff_density_rms         0.239
_refine_ls_extinction_coef       0.00060(5)
_refine_ls_extinction_expression Fc^*^=kFc[1+0.001xFc^2^\l^3^/sin(2\q)]^-1/4^
_refine_ls_extinction_method     'SHELXL-2014/7 (Sheldrick 2014'
_refine_ls_goodness_of_fit_ref   1.031
_refine_ls_hydrogen_treatment    undef
_refine_ls_matrix_type           full
_refine_ls_number_parameters     155
_refine_ls_number_reflns         3251
_refine_ls_number_restraints     0
_refine_ls_restrained_S_all      1.031
_refine_ls_R_factor_all          0.0333
_refine_ls_R_factor_gt           0.0244
_refine_ls_shift/su_max          0.002
_refine_ls_shift/su_mean         0.000
_refine_ls_structure_factor_coef Fsqd
_refine_ls_weighting_details
'w=1/[\s^2^(Fo^2^)+(0.0215P)^2^+0.9933P] where P=(Fo^2^+2Fc^2^)/3'
_refine_ls_weighting_scheme      calc
_refine_ls_wR_factor_gt          0.0522
_refine_ls_wR_factor_ref         0.0544
_reflns_Friedel_coverage         0.000
_reflns_number_gt                2789
_reflns_number_total             3251
_reflns_threshold_expression     'I > 2\s(I)'
_cod_data_source_file            c9dt00445a8.cif
_cod_data_source_block           mo_MH061_0m
_cod_depositor_comments
'Adding full bibliography for 7049219--7049233.cif.'
_cod_original_cell_volume        1650.2(7)
_cod_database_code               7049226
_shelx_shelxl_version_number     2014/7
_shelx_space_group_comment
;
The symmetry employed for this shelxl refinement is uniquely defined
by the following loop, which should always be used as a source of
symmetry information in preference to the above space-group names.
They are only intended as comments.
;
_shelx_res_file
;

    mo_MH061_0m.res created by SHELXL-2014/7


TITL mo_MH061_0m in C2/c
CELL 0.71073  13.46880  11.36440  10.79950  90.0000  93.3692  90.0000
ZERR    4.00   0.00340   0.00280   0.00270   0.0000   0.0082   0.0000
LATT  7
SYMM -X, Y, 0.5-Z
SFAC B O S LU
UNIT 8 96 24 8
TEMP 26.920

ACTA

L.S. 4
BOND
FMAP 2
PLAN 20

WGHT    0.021500    0.993300
EXTI    0.000599
FVAR       0.05327
MOLE   1
LU1   4    0.311392    0.048377    0.846644    11.00000    0.00687    0.00632 =
         0.00470   -0.00002    0.00138    0.00037
B1    1    0.499154    0.327939    1.026764    11.00000    0.00738    0.00398 =
         0.00709    0.00095    0.00201   -0.00068
S1    3    0.578539    0.145306    0.917902    11.00000    0.00664    0.00607 =
         0.00636   -0.00082    0.00211    0.00005
S2    3    0.359514   -0.200581    0.640187    11.00000    0.00603    0.00523 =
         0.00530   -0.00003    0.00157    0.00053
S3    3    0.129196   -0.011660    0.577806    11.00000    0.00573    0.00550 =
         0.00701   -0.00097   -0.00005    0.00096
O11   2    0.574431    0.274822    0.956027    11.00000    0.01290    0.00624 =
         0.01816   -0.00166    0.00962    0.00011
O12   2    0.623357    0.082817    1.022662    11.00000    0.02632    0.01827 =
         0.01669    0.00825    0.00033    0.01108
O13   2    0.479525    0.105096    0.883532    11.00000    0.01172    0.02508 =
         0.01765   -0.00869    0.00326   -0.00781
O14   2    0.355967    0.147564    0.683295    11.00000    0.01255    0.01551 =
         0.01357    0.00679    0.00846    0.00265
O21   2    0.375025   -0.108591    0.731494    11.00000    0.01389    0.01004 =
         0.01310   -0.00730   -0.00137    0.00095
O22   2    0.197669    0.201712    0.814811    11.00000    0.01377    0.01183 =
         0.01059   -0.00452    0.00197    0.00542
O23   2    0.317586    0.156065    1.021966    11.00000    0.01030    0.01109 =
         0.00952   -0.00309   -0.00050   -0.00263
O24   2    0.464485   -0.247130    0.618872    11.00000    0.00729    0.01005 =
         0.00894   -0.00202    0.00049    0.00362
O31   2    0.189476   -0.015085    0.691648    11.00000    0.01028    0.01305 =
         0.00872   -0.00140   -0.00351    0.00237
O32   2    0.176672   -0.019082    0.966699    11.00000    0.01452    0.01221 =
         0.01301   -0.00272    0.00786   -0.00378
O33   2   -0.082391    0.132211    0.436725    11.00000    0.01404    0.00707 =
         0.01020   -0.00042   -0.00372    0.00189
O34   2    0.042338    0.070613    0.597330    11.00000    0.00770    0.00806 =
         0.01021    0.00238    0.00342    0.00325

MOLE   2
HKLF 4

REM  mo_MH061_0m in C2/c
REM R1 =  0.0244 for    2789 Fo > 4sig(Fo)  and  0.0333 for all    3251 data
REM    155 parameters refined using      0 restraints

END

WGHT      0.0215      0.9933

REM Highest difference peak  1.831,  deepest hole -1.257,  1-sigma level  0.239
Q1    1   0.2706  0.0469  0.8803  11.00000  0.05    1.83
Q2    1   0.3499  0.0512  0.8057  11.00000  0.05    1.70
Q3    1   0.2926 -0.0053  0.8198  11.00000  0.05    1.50
Q4    1   0.3364  0.0947  0.8759  11.00000  0.05    1.33
Q5    1   0.3340 -0.0029  0.8748  11.00000  0.05    1.21
Q6    1   0.2946  0.0950  0.8198  11.00000  0.05    1.10
Q7    1   0.3058  0.1663  0.9191  11.00000  0.05    0.95
Q8    1   0.3800 -0.1651  0.7061  11.00000  0.05    0.94
Q9    1   0.0831  0.0505  0.5666  11.00000  0.05    0.94
Q10   1   0.1538 -0.0110  0.6350  11.00000  0.05    0.93
Q11   1   0.2233 -0.1894  1.0192  11.00000  0.05    0.85
Q12   1   0.3247 -0.2000  0.8448  11.00000  0.05    0.84
Q13   1   0.1125 -0.0623  0.5613  11.00000  0.05    0.83
Q14   1   0.5954  0.0370  0.9932  11.00000  0.05    0.83
Q15   1   0.2358 -0.0176  0.6795  11.00000  0.05    0.82
Q16   1   0.3498  0.0433  0.9122  11.00000  0.05    0.82
Q17   1   0.2456 -0.0286  0.9212  11.00000  0.05    0.82
Q18   1   0.3907  0.1342  0.6411  11.00000  0.05    0.81
Q19   1   0.1299 -0.0389  0.4988  11.00000  0.05    0.79
Q20   1   0.3343  0.1847  0.6628  11.00000  0.05    0.78
;
_shelx_res_checksum              60406
_shelx_hkl_file
;
  -2   0   0  229.67   14.71
   2   0   0  210.84   14.70
   2   0   0  207.33   14.62
   2   0   0  197.31   14.61
   2   0   0  213.34   14.56
  -2   0   0  216.04   14.73
  -2   0   0  192.54   14.63
  -2   0   0  211.91   14.74
  -2   0   0  197.95   14.62
  -2   0   0  196.17   14.55
  -2   0   0  212.09   14.71
  -4   0   0  229.74   15.67
   4   0   0  233.42   15.48
  -4   0   0  216.92   15.71
  -4   0   0  220.94   15.66
   4   0   0  205.99   15.44
  -4   0   0  217.57   15.35
  -4   0   0  196.43   15.51
  -4   0   0  224.88   15.74
  -6   0   0  475.42   31.70
   6   0   0  428.09   31.26
  -6   0   0  430.85   31.59
  -6   0   0  439.91   31.14
  -6   0   0  436.58   31.72
  -6   0   0  449.52   31.77
   8   0   0  452.60   31.33
  -8   0   0  439.47   32.02
  -8   0   0  423.06   31.76
  -8   0   0  454.69   32.11
  10   0   0  167.23   12.09
 -10   0   0  162.17   13.22
 -10   0   0  165.41   13.33
 -10   0   0  166.53   12.78
 -12   0   0   14.15    3.89
 -12   0   0   16.15    4.37
 -12   0   0   18.28    3.12
  12   0   0   13.62    1.84
 -14   0   0   29.04    6.30
  14   0   0   25.91    2.85
 -14   0   0   25.71    4.91
 -14   0   0   20.40    5.44
 -16   0   0  262.67   20.83
 -16   0   0  240.47   22.64
  16   0   0  266.43   18.91
 -16   0   0  250.12   22.62
  18   0   0  224.87   17.37
 -18   0   0  261.19   24.18
 -18   0   0  224.76   23.86
  18   0   0  239.55   17.13
 -18   0   0  227.30   19.98
 -20   0   0    7.31    6.63
  20   0   0    3.07    2.03
  20   0   0    8.92    2.34
   1  -1   0   92.29    6.80
   1  -1   0  101.24    6.73
   1  -1   0   92.51    6.74
  -1  -1   0   86.34    6.82
  -1  -1   0   96.47    6.77
  -1  -1   0  105.57    6.75
   1  -1   0   94.44    6.73
   3  -1   0  391.69   30.09
   3  -1   0  487.73   30.24
   3  -1   0  485.05   30.22
  -3  -1   0  418.93   30.26
   3  -1   0  418.29   30.11
   3  -1   0  415.43   30.05
   3   1   0  402.05   30.13
  -3   1   0  463.01   30.38
   3   1   0  435.20   30.11
  -3   1   0  397.74   30.10
  -3   1   0  431.94   30.29
  -3   1   0  370.15   30.19
   3   1   0  439.76   29.97
  -3   1   0  424.08   30.02
  -3   1   0  446.69   30.39
  -5  -1   0  374.68   23.08
   5  -1   0  311.21   22.59
  -5  -1   0  336.31   22.94
   5  -1   0  319.32   22.66
  -5   1   0  319.11   22.95
  -5   1   0  326.90   23.06
  -5   1   0  269.67   22.70
  -5   1   0  334.26   23.10
  -5   1   0  302.20   22.90
   5   1   0  316.32   22.62
  -5   1   0  318.96   22.54
  -7  -1   0   49.91    4.70
   7  -1   0   54.08    4.07
  -7  -1   0   48.29    4.75
  -7  -1   0   51.90    4.51
   7   1   0   55.02    4.03
  -7   1   0   52.58    4.59
  -7   1   0   45.30    4.80
  -7   1   0   57.64    4.86
  -7   1   0   51.45    3.87
   7   1   0   55.18    4.32
  -7   1   0   48.16    4.92
   9  -1   0   24.86    2.25
  -9  -1   0   23.60    3.59
  -9  -1   0   24.94    2.93
  -9  -1   0   26.13    3.54
   9   1   0   23.90    2.26
   9   1   0   37.35    4.55
  -9   1   0   23.02    2.08
  -9   1   0   27.56    4.01
  -9   1   0   24.03    3.99
  -9   1   0   27.99    3.21
  -9   1   0   25.37    3.83
 -11  -1   0  234.17   18.19
 -11  -1   0  233.82   18.11
  11  -1   0  228.38   16.75
 -11  -1   0  233.32   17.55
 -11   1   0  248.74   18.46
 -11   1   0  222.41   18.12
 -11   1   0  229.68   17.62
  11   1   0  226.92   16.72
  13  -1   0  114.24    8.97
 -13  -1   0  120.73   10.08
 -13  -1   0  128.37   11.30
 -13  -1   0  128.02   11.57
 -13   1   0  113.97   11.58
 -13   1   0  116.81   11.51
 -13   1   0  116.38   10.18
  13   1   0  118.27    8.98
  15  -1   0   33.79    3.44
 -15  -1   0   32.53    7.05
 -15  -1   0   40.56    5.62
 -15  -1   0   34.71    7.22
 -15   1   0   25.09    6.97
 -15   1   0   30.34    5.18
  15   1   0   33.49    3.05
  15   1   0   28.07    3.32
 -15   1   0   40.26    8.15
 -17  -1   0    5.08    4.10
 -17  -1   0    9.43    7.22
 -17  -1   0   -1.63    7.60
  17  -1   0    1.51    1.60
  17   1   0    2.10    1.32
 -17   1   0    8.40    4.64
  17   1   0    1.12    1.41
 -17   1   0   -4.84    7.79
 -17   1   0    7.84    9.19
 -19  -1   0   78.93   15.84
 -19  -1   0   83.49   10.51
  19  -1   0   66.36    6.19
  19  -1   0   63.60    5.88
  19   1   0   76.61    6.27
  19   1   0   63.68    5.89
 -19   1   0   59.06    9.48
   0  -2   0  413.18   28.32
   0  -2   0  359.43   28.33
   0  -2   0  419.06   28.33
   0   2   0  432.67   28.32
   0   2   0  449.45   28.34
   0   2   0  352.77   28.32
  -2  -2   0  378.74   25.80
   2  -2   0  338.21   25.73
   2  -2   0  364.41   26.01
   2  -2   0  420.78   26.11
  -2  -2   0  371.21   25.68
   2  -2   0  347.64   25.64
   2  -2   0  405.71   26.04
   2   2   0  373.33   25.65
   2   2   0  335.92   25.65
  -2   2   0  366.34   25.64
   2   2   0  373.51   25.70
  -2   2   0  313.85   25.65
  -2   2   0  368.09   25.64
   4  -2   0    8.31    1.38
   4  -2   0    6.42    1.23
   4  -2   0    5.95    0.80
   4  -2   0    6.42    0.86
  -4  -2   0    7.08    1.06
   4  -2   0    4.89    0.73
   4   2   0    5.51    0.56
   4   2   0    7.07    0.74
   4   2   0    6.44    0.69
  -4   2   0    6.87    1.05
  -4   2   0    9.10    1.69
  -4   2   0    8.42    0.69
  -4   2   0    4.16    1.24
  -4   2   0    4.88    1.18
  -4   2   0    5.49    1.44
   4   2   0    6.62    0.87
   6  -2   0  260.19   17.42
  -6  -2   0  252.70   17.74
   6  -2   0  253.64   17.54
   6  -2   0  240.49   17.25
  -6   2   0  259.36   17.91
  -6   2   0  207.24   17.73
  -6   2   0  227.56   17.54
  -6   2   0  242.00   17.25
  -6   2   0  251.53   18.16
   6   2   0  250.33   17.48
  -6   2   0  243.51   18.17
   6   2   0  241.94   17.32
  -8  -2   0  212.73   15.79
   8  -2   0  212.22   14.99
  -8  -2   0  207.43   15.85
  -8  -2   0  203.94   15.47
  -8   2   0  176.20   15.66
  -8   2   0  208.31   16.02
   8   2   0  203.79   14.91
  -8   2   0  204.38   14.81
  -8   2   0  223.46   16.22
   8   2   0  229.22   15.26
  -8   2   0  210.81   15.63
 -10  -2   0  155.24   12.72
  10  -2   0  160.00   11.55
 -10  -2   0  161.27   12.85
 -10  -2   0  170.29   12.31
 -10   2   0  130.06   13.18
 -10   2   0  162.61   13.31
 -10   2   0  158.26   12.42
 -10   2   0  165.35   11.39
 -10   2   0  154.03   13.13
  10   2   0  153.79   11.49
 -12  -2   0   14.60    4.22
 -12  -2   0   14.10    3.71
 -12  -2   0   14.02    2.76
  12  -2   0   13.14    1.81
 -12   2   0   17.27    3.23
 -12   2   0   14.12    4.88
 -12   2   0   16.76    4.60
  12   2   0   19.81    1.83
  12   2   0   14.00    1.82
 -14  -2   0  104.59   10.12
 -14  -2   0  130.81   11.66
 -14  -2   0  121.87   11.83
 -14   2   0  104.77   12.29
  14   2   0  108.82    8.76
 -14   2   0  118.01   10.32
 -14   2   0  110.24   13.04
  14   2   0  117.25    8.55
  16  -2   0  170.11   12.74
 -16  -2   0  191.33   17.01
 -16  -2   0  164.83   14.47
  16   2   0  173.31   12.73
 -16   2   0  148.31   18.11
 -16   2   0  169.44   15.07
  16   2   0  167.69   12.45
 -16   2   0  146.43   17.21
 -18  -2   0   34.19   12.16
 -18  -2   0   27.95    6.44
 -18  -2   0   22.38   10.80
  18  -2   0   29.14    3.70
  18   2   0   33.67    3.76
 -18   2   0   20.16    6.73
  18   2   0   30.30    3.41
 -20  -2   0   34.10   21.98
  20  -2   0    3.25    2.02
  20  -2   0    0.75    2.02
 -20  -2   0   -5.96    5.11
 -20  -2   0   -8.14   13.66
  20   2   0   -2.57    1.72
  20   2   0    4.25    2.20
 -20   2   0    4.94    6.73
  -1  -3   0   46.57    3.65
  -1  -3   0   50.10    3.75
   1   3   0   48.64    3.63
   1   3   0   57.52    3.70
  -1   3   0   55.59    3.68
  -1   3   0   46.57    3.68
   1   3   0   50.22    3.76
   1   3   0   52.41    3.69
   3  -3   0    3.02    0.69
   3  -3   0    3.63    1.42
   3  -3   0    3.62    0.69
   3  -3   0    3.69    1.05
   3  -3   0    3.12    1.69
  -3  -3   0    3.13    0.50
  -3  -3   0    2.61    0.66
   3   3   0    2.47    0.42
   3   3   0    2.67    0.43
  -3   3   0    3.84    0.48
  -3   3   0    3.30    0.45
   3   3   0    3.09    0.35
   3   3   0    3.09    0.62
  -5  -3   0  255.10   17.97
   5  -3   0  226.77   17.65
   5  -3   0  249.94   18.11
   5  -3   0  252.22   17.56
   5  -3   0  228.29   17.70
   5  -3   0  275.56   18.09
  -5   3   0  238.51   17.58
  -5   3   0  256.59   18.35
   5   3   0  246.53   17.62
   5   3   0  247.81   17.60
  -5   3   0  259.06   18.04
   5   3   0  253.78   17.74
   7  -3   0  166.91   11.01
   7  -3   0  164.78   10.93
  -7  -3   0  150.57   11.25
   7  -3   0  162.18   10.88
   7  -3   0  146.87   10.61
  -7   3   0  134.29   11.07
  -7   3   0  158.64   11.66
  -7   3   0  146.11   11.73
   7   3   0  141.38   10.74
  -7   3   0  142.36   11.62
   7   3   0  152.49   10.97
  -7   3   0  149.42   10.69
  -7   3   0  127.44   11.34
   7   3   0  142.91   10.69
  -9  -3   0    5.27    1.58
  -9  -3   0    1.67    1.84
  -9  -3   0    4.20    2.22
   9  -3   0    5.42    1.04
   9   3   0    3.08    0.70
  -9   3   0    2.21    1.93
  -9   3   0    2.00    0.62
   9   3   0    5.71    1.81
  -9   3   0    5.70    3.08
   9   3   0    3.48    0.81
  -9   3   0    5.91    3.00
 -11  -3   0  175.94   13.64
 -11  -3   0  167.08   12.86
 -11  -3   0  156.12   13.39
  11  -3   0  168.40   11.97
 -11   3   0  138.29   14.02
  11   3   0  170.44   11.80
 -11   3   0  163.85   11.79
  11   3   0  161.24   11.89
 -11   3   0  152.67   13.96
 -11   3   0  167.09   13.17
 -11   3   0  152.48   13.66
  13  -3   0   75.55    6.19
 -13  -3   0   78.09    8.46
 -13  -3   0   80.72    7.53
 -13  -3   0   77.79    8.83
 -13   3   0   76.33    7.80
  13   3   0   81.48    6.03
 -13   3   0   69.77   10.41
 -13   3   0   80.60    9.52
 -15  -3   0   -0.44    4.53
  15  -3   0   -0.57    1.31
 -15  -3   0    0.47    2.86
 -15  -3   0    3.76    5.59
  15   3   0    0.24    1.07
 -15   3   0   -5.13    5.67
 -15   3   0    1.67    4.08
  15   3   0    1.92    1.31
 -15   3   0   -5.53    6.61
 -17  -3   0   21.10    9.28
 -17  -3   0    7.85    7.55
 -17  -3   0   12.30    4.69
  17  -3   0    7.02    1.96
  17   3   0   10.49    2.12
  17   3   0    9.41    1.81
 -17   3   0    4.02    4.73
  19  -3   0    3.19    1.99
 -19  -3   0    8.27   10.17
 -19  -3   0    2.88   11.84
 -19  -3   0   -2.37    5.11
 -19   3   0    1.28    6.13
  19   3   0    1.42    1.60
  19   3   0    0.24    1.89
   0  -4   0   59.20    4.65
   0   4   0   60.54    4.51
   0   4   0   63.82    4.55
   0   4   0   67.98    4.58
  -2  -4   0  135.41   10.10
  -2  -4   0  138.43   10.33
  -2  -4   0  138.90   10.24
   2   4   0  138.43   10.13
   2   4   0  141.09   10.16
  -2   4   0  147.53   10.16
   2   4   0  142.64   10.14
  -2   4   0  157.08   10.14
  -2   4   0  136.02   10.12
   2   4   0  149.11   10.05
   4  -4   0    1.16    0.57
  -4  -4   0   -0.15    0.53
   4  -4   0    0.77    1.12
   4  -4   0    1.91    1.85
   4  -4   0    1.15    0.84
  -4  -4   0    1.12    0.42
   4  -4   0   -0.77    2.34
   4   4   0    0.66    0.39
   4   4   0    0.71    0.37
   4   4   0    0.75    0.23
  -4   4   0    1.03    0.38
   4   4   0    1.02    0.62
  -4   4   0    1.33    0.38
  -4   4   0    1.64    0.55
   4   4   0    0.84    0.36
   6  -4   0  102.42    8.04
   6  -4   0   96.77    7.49
  -6  -4   0  104.17    7.83
   6  -4   0  107.81    7.26
   6  -4   0  109.19    8.29
   6  -4   0   99.45    7.37
   6   4   0   83.73    7.28
   6   4   0   98.22    7.36
   6   4   0  100.60    7.12
   6   4   0   98.82    7.54
  -6   4   0  107.21    7.34
   6   4   0  100.86    7.17
  -6   4   0  107.59    8.55
  -8  -4   0   35.12    3.89
   8  -4   0   40.77    3.65
   8  -4   0   43.67    3.48
   8  -4   0   43.47    3.42
  -8   4   0   35.67    3.15
   8   4   0   44.56    2.95
  -8   4   0   37.82    4.60
   8   4   0   42.98    3.84
   8   4   0   39.20    3.17
  -8   4   0   37.47    4.21
   8   4   0   34.55    3.18
 -10  -4   0   10.22    2.20
 -10  -4   0    7.82    2.63
  10  -4   0    8.20    1.42
 -10  -4   0    7.56    2.93
 -10   4   0    8.64    3.05
 -10   4   0    6.19    2.68
  10   4   0    7.58    2.37
 -10   4   0    8.86    2.04
 -10   4   0    8.98    1.21
 -10   4   0   11.08    2.92
  10   4   0    7.60    1.19
 -10   4   0    9.97    2.86
  10   4   0    6.48    1.03
  12  -4   0   28.20    3.04
 -12  -4   0   26.32    5.03
 -12  -4   0   32.47    4.27
 -12  -4   0   38.83    5.65
 -12   4   0   38.87    5.16
 -12   4   0   31.00    2.88
  12   4   0   32.36    2.97
  12   4   0   34.39    2.89
 -12   4   0   29.81    4.78
 -12   4   0   35.30    4.73
 -14  -4   0   30.38    6.13
 -14  -4   0   22.50    5.50
 -14  -4   0   18.15    3.83
  14   4   0   18.69    2.49
  14   4   0   20.42    2.38
 -14   4   0   19.15    4.39
 -14   4   0   24.62    4.98
 -16  -4   0   40.65    9.44
  16  -4   0   36.52    3.96
 -16  -4   0   24.77    7.67
 -16  -4   0   32.39    5.50
  16   4   0   33.23    3.73
 -16   4   0   36.08    6.73
  16   4   0   37.73    3.55
  18  -4   0   13.75    2.48
 -18  -4   0   11.15    8.83
 -18  -4   0    3.84    4.87
 -18  -4   0    8.57    9.42
  18   4   0   12.84    2.40
 -18   4   0    9.05    6.41
  18   4   0    7.96    1.99
 -20  -4   0   -1.97   13.71
 -20  -4   0    0.08    5.88
  20  -4   0    1.08    2.15
 -20  -4   0   23.09   12.90
 -20   4   0    0.97    7.60
  20   4   0    1.42    2.07
  20   4   0    3.50    1.95
  -1  -5   0   45.60    3.52
   1   5   0   48.57    3.40
   1   5   0   47.54    3.40
  -1   5   0   43.58    3.40
  -1   5   0   47.58    3.38
   1   5   0   41.70    3.30
  -1   5   0   43.78    3.35
  -3  -5   0   14.78    1.50
  -3  -5   0   18.48    1.55
  -3  -5   0   15.52    1.73
   3   5   0   17.29    1.39
   3   5   0   14.40    1.38
   3   5   0   17.26    1.23
   3   5   0   14.88    1.48
  -3   5   0   14.59    1.47
  -3   5   0   14.48    1.35
   3   5   0   13.63    1.39
  -3   5   0   15.79    1.35
   5  -5   0   -0.47    0.98
   5  -5   0    1.42    0.68
  -5  -5   0    0.64    0.73
  -5  -5   0    1.13    0.54
   5  -5   0    2.94    1.48
   5  -5   0    3.41    2.75
   5   5   0    1.97    0.46
   5   5   0    0.64    0.47
  -5   5   0    0.30    0.41
   5   5   0   -0.26    0.84
   5   5   0    1.76    0.49
  -5   5   0    0.62    0.41
   5   5   0    0.46    0.23
   7  -5   0    1.31    0.77
   7  -5   0    3.90    2.53
   7  -5   0    0.81    0.56
   7  -5   0    0.66    1.93
  -7  -5   0    0.26    1.08
   7  -5   0    1.17    0.44
  -7   5   0    1.52    0.50
   7   5   0    0.88    0.36
   7   5   0    1.11    0.46
   7   5   0    0.77    0.30
   7   5   0    1.93    1.26
   7   5   0    0.61    0.56
   9  -5   0   11.76    1.65
  -9  -5   0   14.87    2.45
  -9   5   0   18.79    3.37
   9   5   0   14.42    2.35
   9   5   0    9.52    1.36
   9   5   0   13.61    1.29
   9   5   0   10.77    1.52
   9   5   0   12.07    1.10
  -9   5   0   16.50    1.54
 -11  -5   0    2.65    2.87
 -11  -5   0    5.76    2.20
  11  -5   0    3.88    1.12
 -11  -5   0    5.67    2.83
 -11   5   0    1.16    2.57
  11   5   0    1.72    0.84
 -11   5   0    1.27    0.75
  11   5   0    1.65    0.76
 -13  -5   0    4.20    2.85
 -13  -5   0    9.04    4.37
  13  -5   0    4.90    1.29
 -13  -5   0    3.01    4.28
  13   5   0    5.27    1.50
 -13   5   0    7.52    3.38
  13   5   0    4.73    1.34
 -13   5   0    1.35    1.97
 -15  -5   0   -1.05    5.28
 -15  -5   0    3.59    5.70
  15  -5   0    4.72    1.64
 -15  -5   0    3.13    3.08
  15   5   0    3.29    1.28
  15   5   0    3.08    1.51
 -15   5   0    6.15    5.02
 -17  -5   0    6.62    4.10
 -17  -5   0   10.62    7.84
 -17  -5   0   10.31    6.96
  17  -5   0    8.76    2.22
  17   5   0    7.67    1.87
 -17   5   0    5.99    5.83
  17   5   0    9.10    2.09
 -19  -5   0    8.09   10.69
  19  -5   0    3.29    2.17
 -19  -5   0    4.18    5.08
 -19  -5   0   14.69   10.67
  19   5   0    3.58    1.82
  19   5   0    4.92    2.11
 -19   5   0   -2.35    7.03
   0  -6   0    1.64    0.60
   0   6   0    1.39    0.40
   0   6   0    2.04    0.46
   0   6   0    1.93    0.48
  -2  -6   0    5.78    0.99
  -2   6   0    5.20    0.73
  -2   6   0    6.90    0.79
  -2   6   0    4.95    0.79
   2   6   0    7.34    0.70
   2   6   0    5.20    0.74
   2   6   0    5.22    0.78
   4  -6   0   35.50    3.35
   4  -6   0   45.84    5.47
  -4  -6   0   36.14    3.49
  -4  -6   0   41.14    3.17
  -4   6   0   36.97    3.06
  -4   6   0   42.98    3.22
   4   6   0   41.11    3.19
  -4   6   0   38.23    3.06
   4   6   0   41.86    3.13
   4   6   0   38.99    3.11
   4   6   0   40.34    2.88
   6  -6   0   -0.37    3.66
  -6  -6   0    1.55    1.07
   6  -6   0   -0.77    1.46
   6  -6   0    1.47    1.16
   6  -6   0    1.72    0.82
   6   6   0    1.10    0.56
  -6   6   0    1.76    0.55
   6   6   0    1.59    0.39
   6   6   0    0.38    0.45
   6   6   0    1.97    1.16
   6   6   0    0.93    0.56
   8  -6   0   20.36    2.13
   8  -6   0   22.55    3.53
   8  -6   0   22.64    2.85
  -8  -6   0   19.86    2.75
   8   6   0   14.83    1.76
   8   6   0   21.13    2.56
  -8   6   0   14.86    1.64
   8   6   0   14.13    1.69
 -10  -6   0    7.78    2.06
  10  -6   0    1.40    1.06
  10   6   0    3.88    0.96
  10   6   0    3.88    0.87
 -10   6   0    2.22    0.84
  10   6   0    0.19    2.41
 -12  -6   0    8.81    4.38
 -12  -6   0    3.48    2.73
 -12  -6   0    6.44    3.54
  12  -6   0    5.60    1.43
  12   6   0    5.02    1.25
 -12   6   0    3.77    1.52
 -12   6   0    6.13    3.46
  14  -6   0   29.51    3.51
 -14  -6   0   39.73    7.82
 -14  -6   0   26.59    4.77
 -14  -6   0   34.30    7.60
  14   6   0   28.51    3.15
 -14   6   0   30.70    6.70
  14   6   0   25.83    3.01
 -16  -6   0   -3.41    6.04
  16  -6   0   -2.71    1.65
 -16  -6   0    0.09    3.38
 -16  -6   0   -4.30    5.87
  16   6   0   -0.02    1.25
  16   6   0    1.92    1.40
 -16   6   0   -0.92    5.71
 -18  -6   0   -5.85    4.27
 -18  -6   0   13.40    8.78
 -18  -6   0    6.00    8.87
  18  -6   0   -2.81    1.96
 -18   6   0    4.78    7.35
  18   6   0    2.31    1.63
  18   6   0   -1.04    1.74
   1  -7   0   14.34    1.74
  -1  -7   0   15.80    1.81
   1   7   0   15.72    1.48
   1   7   0   15.69    1.47
  -1   7   0   14.73    1.39
   1   7   0   15.17    1.35
  -1   7   0   14.48    1.49
  -1   7   0   18.58    1.47
  -3  -7   0  249.11   17.45
  -3  -7   0  229.82   17.16
  -3   7   0  228.82   17.08
  -3   7   0  239.60   17.02
   3   7   0  269.35   16.89
   3   7   0  233.91   17.05
  -3   7   0  245.90   17.01
   3   7   0  216.55   17.00
   5  -7   0   87.07    7.35
  -5  -7   0   84.57    6.44
   5  -7   0   85.91    6.38
  -5  -7   0   77.38    5.83
   5  -7   0   74.90    9.05
   5   7   0   73.71    5.84
  -5   7   0   72.17    5.78
   5   7   0   74.72    5.85
   5   7   0   75.44    6.01
   5   7   0   87.12    5.58
  -5   7   0   69.84    5.93
   5   7   0   75.41    5.85
   7  -7   0   18.91    2.29
  -7  -7   0   24.40    2.89
   7  -7   0   16.24    2.28
   7  -7   0   28.64    5.66
   7  -7   0   21.09    2.73
  -7   7   0   19.06    1.92
   7   7   0   20.28    2.02
   7   7   0   24.98    2.09
   7   7   0   22.65    2.84
   7   7   0   22.83    2.02
   9  -7   0    3.46    1.12
   9  -7   0   -0.54    2.62
  -9  -7   0    2.15    1.53
   9  -7   0   -1.67    1.87
   9   7   0    0.05    0.71
   9   7   0    0.23    0.61
   9   7   0   -0.68    0.70
  -9   7   0    0.95    0.66
   9   7   0   -1.21    2.05
 -11  -7   0    8.42    3.94
  11  -7   0    7.30    1.60
 -11  -7   0    4.28    3.57
 -11  -7   0   11.07    3.04
 -11   7   0    9.44    1.73
  11   7   0    5.05    3.39
  11   7   0    9.64    1.42
  13  -7   0   83.08    6.32
 -13  -7   0   73.37    8.05
 -13  -7   0   81.88   10.80
 -13  -7   0   67.04    9.78
  13   7   0   79.75    6.27
  13   7   0   69.31    6.04
 -13   7   0   73.30    6.21
 -15  -7   0   13.27    6.65
 -15  -7   0   23.69    7.96
  15  -7   0   21.02    3.07
 -15  -7   0   28.20    5.29
  15   7   0   25.28    2.96
  15   7   0   23.29    3.06
 -17  -7   0   14.64    8.64
  17  -7   0   12.00    2.52
 -17  -7   0   18.06    4.99
 -17  -7   0   13.04    8.60
  17   7   0   11.82    2.20
  17   7   0    6.99    2.21
 -19  -7   0   24.81    6.89
 -19  -7   0   38.55   12.06
  19  -7   0   27.91    3.74
 -19  -7   0   24.96   12.69
  19   7   0   26.33    3.79
  19   7   0   27.06    3.45
   0  -8   0   93.56    7.25
   0   8   0   96.50    6.90
   0   8   0   94.50    6.95
   0   8   0   94.87    7.02
   2  -8   0  154.67   11.23
  -2  -8   0  154.59   11.33
  -2  -8   0  148.51   11.20
   2   8   0  162.38   10.98
  -2   8   0  148.25   10.87
  -2   8   0  159.12   11.00
  -2   8   0  150.89   10.88
   2   8   0  150.97   10.90
   2   8   0  134.37   10.75
  -4  -8   0    7.30    1.21
  -4  -8   0    9.14    1.76
   4  -8   0   13.20    1.73
  -4   8   0    9.78    1.33
   4   8   0    6.85    1.09
   4   8   0    6.99    0.88
  -4   8   0    7.29    1.07
   4   8   0    8.84    1.10
  -4   8   0   10.61    1.13
  -6  -8   0  144.60   10.69
   6  -8   0  123.18   10.16
   6  -8   0  148.26   10.62
   6  -8   0  132.62   11.44
  -6  -8   0  127.44    9.85
  -6   8   0  136.38    9.91
   6   8   0  142.45    9.99
  -6   8   0  137.96   10.12
   6   8   0  142.46    9.97
  -6   8   0  130.61    9.94
   6   8   0  134.27    9.61
   6   8   0  137.20    9.97
   8  -8   0  140.24   13.26
  -8  -8   0  137.82   10.52
   8  -8   0  123.78    9.80
   8   8   0  143.21    9.65
   8   8   0  128.94    9.59
   8   8   0  118.03    9.59
   8   8   0  137.07    9.84
  -8   8   0  120.73    9.57
  10  -8   0   53.50    4.92
 -10  -8   0   59.18    6.21
 -10   8   0   60.22    4.79
  10   8   0   65.40    4.74
  10   8   0   54.32    4.71
  10   8   0   49.44    4.69
  10   8   0   69.87    6.14
  12  -8   0   -1.49    1.25
 -12  -8   0    5.52    4.60
 -12  -8   0    5.55    3.23
 -12  -8   0   -3.04    3.80
  12   8   0    0.12    1.10
  12   8   0    2.78    1.33
  12   8   0   -0.13    1.10
 -12   8   0    1.80    1.31
 -14  -8   0   33.70    5.32
  14  -8   0   36.10    4.01
 -14  -8   0   41.84    8.04
 -14  -8   0   27.90    7.65
  14   8   0   26.11    3.33
  14   8   0   32.19    3.53
  14   8   0   29.48    3.58
  16  -8   0   52.73    5.59
 -16  -8   0   60.12   11.50
 -16  -8   0   54.10   11.08
 -16  -8   0   71.18    8.40
  16   8   0   58.85    5.50
  16   8   0   60.17    5.62
  16   8   0   55.53    5.23
 -18  -8   0   24.89   10.97
 -18  -8   0   20.48   10.46
  18  -8   0   26.92    3.56
 -18  -8   0   18.57    6.32
  18   8   0   20.32    2.99
  18   8   0   17.20    3.21
  18   8   0   24.49    3.67
  -1  -9   0   60.65    5.29
   1  -9   0   63.26    5.24
  -1   9   0   63.21    4.96
   1   9   0   62.43    4.85
   1   9   0   67.47    4.77
  -1   9   0   61.83    4.83
  -1   9   0   64.87    4.81
   1   9   0   65.61    4.93
  -3  -9   0  429.14   28.02
  -3  -9   0  378.99   27.62
  -3   9   0  359.33   27.49
   3   9   0  403.88   27.51
   3   9   0  365.26   27.39
  -3   9   0  367.54   27.38
  -3   9   0  422.93   27.42
   3   9   0  372.58   27.23
  -5  -9   0  161.60   12.66
   5  -9   0  185.65   12.48
  -5  -9   0  167.76   12.06
   5   9   0  163.51   12.08
   5   9   0  169.37   11.80
  -5   9   0  167.87   12.05
   5   9   0  155.79   12.10
  -5   9   0  167.76   12.09
  -5   9   0  160.06   12.22
   7  -9   0   89.77    6.86
   7  -9   0   66.04    7.92
  -7  -9   0   84.78    7.36
   7   9   0   90.69    6.58
  -7   9   0   86.64    6.55
   7   9   0   91.19    6.58
   9  -9   0   31.67    5.81
  -9  -9   0   20.05    3.72
   9   9   0   31.51    3.58
   9   9   0   24.18    2.74
   9   9   0   28.49    2.74
  -9   9   0   31.09    2.86
   9   9   0   27.37    2.74
 -11  -9   0  154.42   12.38
  11  -9   0  121.23   10.88
  11   9   0  153.34   10.99
  11   9   0  149.30   10.88
 -11   9   0  149.73   10.93
 -13  -9   0  103.11   10.32
 -13  -9   0  106.08   12.71
 -13  -9   0  116.50   12.87
 -13   9   0  108.48    8.51
  13   9   0  104.91    8.50
  13   9   0  103.69    8.38
  13   9   0  112.87    8.59
 -15  -9   0   32.07    6.29
 -15  -9   0   37.09    8.97
 -15  -9   0   42.49    9.41
  15  -9   0   42.00    4.82
  15   9   0   41.97    4.10
  15   9   0   40.78    4.46
  15   9   0   36.79    4.45
 -17  -9   0    9.07    4.99
 -17  -9   0    6.05    8.88
 -17  -9   0    8.36    8.95
  17  -9   0    6.81    2.65
  17   9   0   10.28    2.67
  17   9   0    8.37    2.17
  17   9   0    9.65    2.61
   0 -10   0  202.11   15.25
   0  10   0  205.05   14.95
   0  10   0  218.11   14.78
   0  10   0  199.48   14.81
  -2 -10   0   75.83    6.20
  -2 -10   0   75.66    6.17
   2  10   0   73.84    5.59
   2  10   0   72.86    5.44
   2  10   0   65.19    5.64
  -2  10   0   78.66    5.75
  -2  10   0   74.33    5.58
  -4 -10   0   19.37    2.31
   4 -10   0   15.24    2.45
   4 -10   0   14.49    2.54
  -4 -10   0   20.11    2.84
  -4  10   0   21.08    1.94
  -4  10   0   16.89    2.25
   4  10   0   21.62    2.06
  -4  10   0   18.35    1.91
   4  10   0   18.66    2.00
   6 -10   0   35.09    3.56
   6 -10   0   37.81    4.54
  -6 -10   0   31.43    3.83
   6 -10   0   40.85    6.27
  -6 -10   0   36.49    2.92
  -6  10   0   28.86    2.93
   6  10   0   34.67    3.06
   6  10   0   35.27    2.61
   6  10   0   31.23    3.01
  -6  10   0   30.60    3.43
  -6  10   0   35.72    2.96
   8 -10   0  330.84   26.32
   8 -10   0  359.17   26.49
  -8 -10   0  378.40   27.20
  -8  10   0  388.46   26.20
   8  10   0  421.94   26.21
   8  10   0  321.42   26.12
  10 -10   0  138.02    9.83
 -10 -10   0  130.66   11.14
  10  10   0  130.16   10.72
 -10  10   0  126.38    9.67
  10  10   0  112.80    9.59
 -12 -10   0   12.36    6.15
 -12 -10   0    8.87    5.75
  12 -10   0   10.95    2.33
 -12 -10   0   13.35    4.28
 -12  10   0   13.20    2.14
  12  10   0   15.67    2.34
  12  10   0   15.40    2.42
  12  10   0   18.77    2.39
 -14 -10   0   63.36   11.12
 -14 -10   0   63.50    8.42
 -14 -10   0   69.52   11.18
  14 -10   0   72.07    6.29
  14  10   0   62.87    6.04
  14  10   0   72.25    5.90
  14  10   0   64.14    6.08
 -16 -10   0   64.80   12.97
  16 -10   0   55.27    5.94
 -16 -10   0   64.66   12.27
 -16 -10   0   49.47    7.76
  16  10   0   68.72    5.96
  16  10   0   49.09    5.30
  16  10   0   58.09    5.78
  -1 -11   0   56.39    5.10
  -1 -11   0   53.61    5.23
  -1  11   0   56.01    4.41
   1  11   0   62.45    4.65
  -1  11   0   60.82    4.68
   1  11   0   54.93    4.34
   1  11   0   53.31    4.43
  -1  11   0   54.24    4.43
  -3 -11   0  207.03   16.45
   3 -11   0  219.74   16.42
  -3 -11   0  226.88   16.15
  -3  11   0  222.32   16.02
   3  11   0  200.48   15.89
   3  11   0  241.95   15.65
  -3  11   0  204.46   15.78
  -3  11   0  215.89   15.78
   3  11   0  234.10   15.84
   5 -11   0  177.53   14.82
  -5 -11   0  199.34   14.09
   5 -11   0  205.97   14.64
  -5 -11   0  191.23   14.94
   5  11   0  187.85   14.15
  -5  11   0  195.16   14.12
  -5  11   0  193.48   14.18
  -5  11   0  198.03   14.41
   5  11   0  203.81   14.34
   5  11   0  195.38   13.86
   7 -11   0   36.70    4.72
  -7 -11   0   24.31    4.10
   7 -11   0   30.17    5.69
   7 -11   0   36.18    3.75
   7  11   0   36.29    3.20
  -7  11   0   33.77    3.69
   7  11   0   34.51    3.32
  -7  11   0   33.28    3.32
  -9 -11   0   13.61    3.58
   9 -11   0   17.14    2.65
  -9  11   0   17.75    2.39
   9  11   0   20.25    2.47
 -11 -11   0  120.88   10.58
  11 -11   0   88.01    8.59
 -11 -11   0   99.79   12.79
  11  11   0  117.81    8.62
 -11  11   0  119.68    8.65
 -13 -11   0   92.87   13.04
 -13 -11   0  107.44   13.62
  13  11   0   92.18    8.06
 -13  11   0  101.40    8.16
  13  11   0  107.49    8.27
  15 -11   0   37.16    4.74
 -15 -11   0   22.87    5.85
 -15 -11   0   19.35    9.00
 -15 -11   0   15.66    9.12
  15  11   0   31.10    3.95
  15  11   0   36.39    4.19
   0  12   0  149.57   11.69
   0  12   0  166.91   11.51
   0  12   0  155.08   11.42
  -2 -12   0  101.15    8.52
  -2 -12   0  117.08    8.61
   2 -12   0  106.63    8.83
  -2  12   0   97.16    7.72
  -2  12   0  102.35    7.74
   2  12   0   95.11    7.99
   2  12   0  104.52    7.62
  -2  12   0  108.59    8.01
   2  12   0  100.88    7.74
   4 -12   0    0.57    1.92
   4 -12   0   -0.50    1.85
  -4 -12   0   -0.66    1.38
  -4  12   0   -0.39    1.28
  -4  12   0    2.04    0.94
   4  12   0    0.61    1.19
   4  12   0    1.15    0.82
   4  12   0    0.65    0.89
   6 -12   0   41.07    4.73
   6 -12   0   50.16    8.19
   6 -12   0   47.22    6.26
   6 -12   0   43.76    5.47
  -6 -12   0   52.00    5.59
   6  12   0   47.86    4.14
  -6  12   0   45.04    4.22
  -6  12   0   53.96    4.77
  -6  12   0   49.09    4.18
   6  12   0   52.73    3.82
   6  12   0   42.44    4.32
   8 -12   0  116.03   11.21
  -8 -12   0  139.36   11.55
   8  12   0  119.63   10.09
   8  12   0  151.57   10.19
  -8  12   0  138.01   10.12
 -10 -12   0   49.95    6.71
  10  12   0   51.37    4.74
 -10  12   0   49.52    4.70
  10  12   0   50.94    4.87
  12 -12   0    1.93    2.96
 -12 -12   0    3.52    6.42
 -12 -12   0   -7.29    5.57
 -12 -12   0    1.50    3.54
  12  12   0    1.36    1.94
 -12  12   0   -1.41    1.52
  12  12   0   -0.38    1.58
 -14 -12   0    5.19    4.94
  14 -12   0   14.76    3.10
 -14 -12   0    7.33    7.41
 -14 -12   0   17.33    8.27
  14  12   0   12.24    2.86
  14  12   0   11.64    2.54
   1 -13   0   24.33    3.71
  -1 -13   0   18.57    3.75
   1  13   0   23.63    2.40
   1  13   0   23.59    3.00
  -1  13   0   29.06    3.18
  -1  13   0   23.23    2.44
   1  13   0   24.02    2.46
  -1  13   0   22.03    2.42
   3 -13   0   83.99    8.51
  -3 -13   0   97.08    8.39
  -3 -13   0   96.63    7.69
   3  13   0   88.67    7.10
   3  13   0  101.94    6.98
  -3  13   0   86.61    7.19
  -3  13   0   94.42    7.69
   3  13   0   88.75    7.42
   5 -13   0   79.75    9.90
  -5 -13   0   50.17    6.28
   5 -13   0   53.88    5.74
   5 -13   0   70.72    7.26
   5 -13   0   58.75    6.47
  -5  13   0   66.24    5.91
   5  13   0   61.58    5.10
  -5  13   0   55.47    5.07
  -5  13   0   69.16    5.25
   5  13   0   53.09    5.26
   5  13   0   64.03    4.74
   7 -13   0   -1.43    5.65
  -7 -13   0    0.99    2.52
   7 -13   0    1.32    2.05
   7 -13   0   -0.86    2.59
   7  13   0   -1.01    1.40
   7  13   0   -0.53    1.52
  -7  13   0   -0.14    2.38
  -7  13   0    0.76    1.38
   9 -13   0    3.85    3.49
  -9 -13   0    4.92    3.12
   9 -13   0    8.33    2.24
   9  13   0    4.77    1.68
  -9  13   0    2.70    1.63
   9  13   0    4.16    1.91
 -11 -13   0    5.49    6.40
 -11 -13   0   -1.09    3.79
 -11 -13   0    1.22    6.36
  11 -13   0   10.28    2.68
  11  13   0    7.32    2.09
 -11  13   0   10.67    2.31
  11  13   0   10.31    2.35
 -13 -13   0   43.12   10.45
 -13 -13   0   42.80   10.18
  13  13   0   49.17    5.65
  13  13   0   54.01    5.24
   0 -14   0    6.42    3.36
   0 -14   0    2.49    2.31
   0  14   0    2.08    1.22
   0  14   0    1.78    1.39
   0  14   0    1.06    1.63
  -2 -14   0   12.59    3.20
  -2 -14   0   19.43    3.16
   2 -14   0   17.28    4.07
   2  14   0   16.47    2.21
   2  14   0   16.18    2.56
  -2  14   0   15.75    2.15
   2  14   0   17.37    2.03
  -2  14   0   22.29    2.92
  -2  14   0   15.63    2.31
   4 -14   0   18.44    3.87
   4 -14   0   21.85    3.35
  -4 -14   0   13.24    3.44
  -4  14   0   18.57    2.25
   4  14   0   14.89    2.37
   4  14   0   16.78    2.01
  -4  14   0   17.73    2.40
  -4  14   0   19.18    2.98
   4  14   0   16.56    2.61
   6 -14   0   31.05    4.96
   6 -14   0   34.06    4.13
   6 -14   0   49.74    8.16
  -6 -14   0   26.57    4.79
   6  14   0   34.59    3.93
  -6  14   0   33.73    3.54
  -6  14   0   39.45    4.49
   6  14   0   32.81    3.74
  -6  14   0   35.79    3.75
   8 -14   0   14.16    2.63
   8 -14   0   17.75    4.05
  -8 -14   0   11.09    3.96
  -8  14   0   11.66    2.30
   8  14   0    6.03    1.97
   8  14   0   13.32    2.44
 -10 -14   0   13.83    4.38
  10 -14   0   16.91    6.53
 -10 -14   0   23.41    7.28
 -10 -14   0   22.18    7.72
 -10  14   0   25.72    3.33
  10  14   0   19.23    3.05
  10  14   0   24.38    3.23
 -12 -14   0   12.47    7.46
  12 -14   0   -6.07    4.69
 -12 -14   0   -9.90    6.46
 -12 -14   0   -3.44    4.58
  12  14   0    1.74    2.50
  12  14   0    1.68    1.96
   1 -15   0   -1.58    4.11
  -1 -15   0   -0.35    2.56
   1 -15   0    1.80    2.69
  -1  15   0   -1.71    1.45
  -1  15   0    1.20    1.55
  -1  15   0    1.90    1.87
   1  15   0    1.37    1.84
   1  15   0    0.39    1.45
   3 -15   0    3.46    3.83
  -3 -15   0    1.94    2.83
   3 -15   0    5.70    2.96
   3  15   0    0.31    1.53
   3  15   0    0.83    1.80
  -3  15   0    5.34    1.60
  -3  15   0    1.58    1.57
  -3  15   0    0.84    2.24
   3  15   0    1.19    1.46
  -5 -15   0    7.45    3.49
   5 -15   0   11.80    6.77
   5 -15   0    8.54    4.22
   5 -15   0    7.67    3.28
   5 -15   0   11.66    7.13
   5  15   0    6.61    1.95
  -5  15   0    8.06    1.88
  -5  15   0    5.40    3.06
  -5  15   0    9.39    2.03
   5  15   0    4.91    2.05
   7 -15   0    7.57    4.14
  -7 -15   0   -1.30    3.17
   7  15   0    6.51    2.07
   7  15   0    5.32    2.08
  -7  15   0    2.33    1.90
  -9 -15   0   -4.29    6.29
  -9 -15   0    2.91    3.98
  -9 -15   0    8.18    7.76
   9  15   0   -1.09    1.91
  -9  15   0   -0.06    1.89
   9  15   0   -4.50    2.01
 -11 -15   0    1.91    7.42
 -11 -15   0   -2.50    4.33
 -11 -15   0   -0.23    7.50
  11  15   0   -3.53    2.02
   0 -16   0    4.64    3.33
   0  16   0    3.54    2.07
   0  16   0    6.43    2.45
   0  16   0    4.40    1.84
   2 -16   0    1.06    3.03
   2 -16   0    2.77    5.01
  -2 -16   0    2.26    3.22
   2  16   0    1.96    1.82
   2  16   0    2.84    2.18
  -2  16   0   -0.36    1.84
  -2  16   0   -0.47    2.50
  -2  16   0   -1.62    1.56
  -4 -16   0   -0.44    3.23
   4 -16   0    2.92    9.55
   4 -16   0    9.66    5.13
   4 -16   0   11.70    6.54
   4  16   0   -2.76    1.70
  -4  16   0   -1.16    1.62
   4  16   0   -2.81    1.95
  -4  16   0   -0.71    1.82
  -4  16   0    2.64    2.93
  -6 -16   0   -2.39    3.67
   6 -16   0    5.35    5.25
   6  16   0    5.46    2.14
  -6  16   0    8.78    3.73
   6  16   0    3.16    2.33
  -6  16   0    5.52    2.10
  -8 -16   0   -0.49    4.06
  -8 -16   0   -2.16    6.96
   8 -16   0   -5.65    5.21
  -8 -16   0    9.66    7.58
   8  16   0   -1.34    2.41
   8  16   0    1.06    2.24
  -8  16   0    1.94    2.05
  -1 -17   0    4.21    3.76
   1 -17   0    4.44    3.97
   1  17   0    6.54    2.77
   1  17   0    6.51    2.22
  -1  17   0    2.80    2.07
  -1  17   0    5.19    3.05
   3 -17   0   12.43    4.05
  -3 -17   0    6.31    4.15
   3  17   0    9.16    2.48
  -3  17   0    5.70    2.54
   3  17   0    4.88    2.68
  -3  17   0   10.22    2.34
  -3  17   0    5.74    3.50
  -5 -17   0   36.57    6.34
   5 -17   0   47.11   12.22
   5 -17   0   28.50    9.48
  -5  17   0   46.85    5.91
   5  17   0   34.41    4.75
  -5  17   0   39.79    4.87
   5  17   0   38.13    4.24
  20   0  -1   -0.90    1.82
 -20   0   1   -2.60    5.83
  20   0  -1   -0.01    1.96
  18   0  -1    2.23    1.74
 -18   0   1    5.29    8.76
 -18   0   1    0.13    4.33
 -16   0   1   -0.90    6.58
 -16   0   1    1.78    3.79
  16   0  -1   -3.32    1.29
 -16   0   1    2.36    5.98
 -14   0   1   -3.53    2.43
  14   0  -1   -1.04    1.17
 -14   0   1    3.13    3.94
 -14   0   1    2.35    4.26
 -12   0   1    4.90    2.71
 -12   0   1    0.01    2.79
  12   0  -1    0.84    0.83
 -12   0   1    2.17    1.87
 -10   0   1   -0.79    1.76
  10   0  -1   -0.15    0.69
 -10   0   1   -0.23    1.96
 -10   0   1    0.52    1.41
 -10   0   1    0.34    0.46
   8   0  -1   -0.48    0.70
  -8   0   1    1.21    1.37
   8   0  -1    1.95    1.41
  -8   0   1    1.49    1.10
   8   0  -1   -0.45    0.61
  -8   0   1   -0.31    1.16
  -8   0   1    0.72    0.35
   6   0  -1    0.81    0.68
   6   0  -1   -0.84    0.73
  -6   0   1   -0.15    0.80
   6   0  -1    0.44    0.52
  -6   0   1   -0.30    0.22
  -6   0   1   -0.28    1.39
   6   0  -1    0.11    0.54
  -4   0   1    0.54    0.57
   4   0  -1   -0.43    0.51
   4   0  -1    0.51    0.50
  -4   0   1    0.25    0.87
   4   0  -1    0.56    0.61
  -4   0   1    0.16    0.17
   4   0  -1    0.39    0.37
  -2   0   1   -0.13    0.26
   2   0  -1    0.44    0.30
   2   0  -1   -0.06    0.12
  -2   0   1   -0.13    0.52
  -2   0   1    0.12    0.22
   2   0  -1    0.00    0.26
  -2   0   1   -0.68    0.31
   2   0  -1    0.42    0.42
   2   0  -1    0.03    0.16
   2   0  -1    0.32    0.52
  -2   0   1   -1.03    0.53
   2   0  -1   -0.03    0.20
  -2   0   1    0.17    0.12
   2   0   1    0.15    0.10
  -2   0  -1   -0.57    0.38
  -2   0  -1    0.11    0.84
   2   0   1    0.16    0.14
   2   0   1    0.15    0.60
  -2   0  -1   -1.29    0.72
   2   0   1   -1.01    0.72
   2   0   1    0.90    1.08
  -2   0  -1    0.07    0.18
  -4   0  -1   -0.53    1.00
  -4   0  -1   -0.16    0.60
   4   0   1   -0.29    0.25
   4   0   1    1.26    1.01
  -6   0  -1   -0.62    1.31
   6   0   1    0.14    0.37
  -6   0  -1    2.51    1.73
  -6   0  -1    0.24    0.79
  -8   0  -1    0.72    1.59
  -8   0  -1    0.90    1.88
  -8   0  -1   -0.94    1.11
   8   0   1   -0.09    0.46
  -8   0  -1   -1.12    1.94
 -10   0  -1    1.68    2.74
 -10   0  -1   -0.37    2.48
  10   0   1    0.64    0.58
 -10   0  -1   -1.61    1.46
 -12   0  -1    2.06    2.13
 -12   0  -1    1.19    3.60
  12   0   1   -1.03    0.72
 -12   0  -1   -2.64    3.29
  14   0   1    0.79    0.73
  14   0   1    1.68    1.08
 -14   0  -1    3.84    4.23
 -14   0  -1   -2.82    5.33
 -14   0  -1   -5.96    2.56
  16   0   1    0.17    1.31
 -16   0  -1   -2.15    3.73
  16   0   1   -0.12    0.89
 -16   0  -1    4.70    7.24
 -16   0  -1   -2.00    6.28
 -18   0  -1   10.48    5.02
 -18   0  -1   17.49   11.28
 -20   0  -1    0.77    6.01
  20   0   1    1.85    2.02
  20   0   1    1.90    1.90
 -19  -1   1    0.83   11.94
 -19  -1   1   -2.18    5.02
  19  -1  -1    1.07    1.81
  19   1  -1    2.29    1.85
  19   1  -1   -0.35    1.62
 -19   1   1   -5.24    5.32
 -17  -1   1   -9.89    6.67
  17  -1  -1   -4.02    1.39
 -17  -1   1    1.51    4.03
 -17  -1   1   -6.87    6.82
 -17   1   1    1.99    4.27
  17   1  -1    0.33    1.37
  17   1  -1   -0.73    1.36
 -17   1   1   -4.22    7.69
 -15  -1   1   19.56    5.70
 -15  -1   1   12.36    4.16
 -15  -1   1   16.13    5.72
  15  -1  -1   14.02    2.31
 -15   1   1   18.44    6.11
  15   1  -1   12.25    2.07
 -15   1   1   12.68    4.15
 -15   1   1   17.39    6.36
 -13  -1   1    2.42    3.20
 -13  -1   1    1.52    2.90
 -13  -1   1    1.68    2.18
  13  -1  -1    3.07    1.06
  13   1  -1    3.22    1.10
 -13   1   1    2.75    5.72
 -13   1   1    4.23    2.25
 -13   1   1    6.72    4.15
 -11  -1   1    7.23    2.71
  11  -1  -1    7.25    1.33
 -11  -1   1   10.53    2.13
 -11  -1   1   11.54    2.83
 -11   1   1    8.39    1.10
  11   1  -1    8.51    1.41
 -11   1   1   10.04    3.01
 -11   1   1   10.31    3.22
 -11   1   1   10.79    2.61
   9  -1  -1    8.04    1.34
  -9  -1   1    9.83    2.13
  -9  -1   1    7.08    1.99
  -9  -1   1   10.87    2.28
   9  -1  -1    9.05    1.33
  -9   1   1   11.59    2.02
  -9   1   1    9.45    2.37
  -9   1   1   10.68    2.18
   9   1  -1    9.93    1.32
  -9   1   1    7.36    0.99
  -7  -1   1  171.24   12.43
   7  -1  -1  174.09   12.16
   7  -1  -1  160.49   12.12
   7  -1  -1  196.38   12.45
  -7  -1   1  171.81   11.83
   7   1  -1  178.39   12.35
  -7   1   1  159.66   11.87
  -7   1   1  172.07   12.39
  -7   1   1  163.47   12.38
  -7   1   1  161.31   12.32
  -7   1   1  140.13   13.02
   7   1  -1  166.30   12.22
   7   1  -1  155.99   12.04
   5  -1  -1   62.07    5.20
   5  -1  -1   65.78    4.98
  -5  -1   1   65.82    5.54
  -5  -1   1   68.56    5.12
  -5  -1   1   66.50    4.68
   5   1  -1   62.68    5.02
   5   1  -1   64.40    4.88
  -5   1   1   69.62    4.97
  -5   1   1   62.70    5.08
  -5   1   1   66.81    4.97
  -5   1   1   63.74    4.74
   5   1  -1   70.02    5.07
   5   1  -1   66.58    4.70
  -3  -1   1   18.63    1.58
   3  -1  -1   17.61    1.71
  -3  -1   1   18.29    1.29
   3  -1  -1   19.76    1.61
  -3  -1   1   19.26    1.97
  -3  -1   1   17.54    1.57
   3  -1  -1   14.19    1.96
   3   1  -1   18.57    1.80
   3   1  -1   19.31    1.63
  -3   1   1   17.08    1.36
  -3   1   1   16.65    2.00
   3   1  -1   17.59    1.31
  -3   1   1   15.16    2.16
   3   1  -1   16.77    1.72
  -3   1   1   18.55    1.57
  -1  -1   1   48.80    3.47
  -1  -1   1   48.09    3.61
   1  -1  -1   47.26    3.45
   1  -1  -1   51.57    3.76
   1  -1  -1   46.64    3.49
  -1  -1   1   46.04    3.75
  -1   1   1   51.45    3.63
  -1   1   1   56.22    3.76
  -1   1   1   53.73    3.48
  -1   1   1   50.93    4.07
  -1   1   1   45.76    3.49
   1   1  -1   47.30    3.61
  -1   1   1   48.37    3.45
   1   1  -1   38.96    3.67
   1   1  -1   49.23    3.62
  -1   1   1   45.93    3.61
  -1  -1  -1   67.45    4.82
   1  -1   1   64.98    5.48
  -1  -1  -1   59.71    5.05
  -1  -1  -1   67.73    4.70
  -1  -1  -1   71.71    5.12
   1  -1   1   77.43    5.19
   1  -1   1   58.27    4.91
   1  -1   1   67.34    4.82
  -1  -1  -1   67.90    4.73
   1  -1   1   59.75    4.67
   1  -1   1   67.47    5.62
   1  -1   1   75.71    4.86
  -1  -1  -1   71.00    4.71
   1   1   1   60.02    4.70
   1   1   1   66.26    4.73
  -1   1  -1   63.51    5.43
  -1   1  -1   56.96    4.79
   1   1   1   69.10    5.09
  -1   1  -1   70.70    5.51
   1   1   1   74.34    5.08
   3  -1   1   64.33    5.40
  -3  -1  -1   61.54    4.63
  -3  -1  -1   58.90    4.90
   3  -1   1   57.68    4.34
   3  -1   1   65.33    5.23
  -3   1  -1   65.12    4.89
  -3   1  -1   60.48    5.42
  -3   1  -1   57.83    5.36
  -3   1  -1   55.42    4.38
   3   1   1   60.00    4.37
   3   1   1   62.07    4.32
  -5  -1  -1    7.48    1.81
   5  -1   1    8.62    0.86
   5  -1   1   10.75    1.76
  -5  -1  -1    8.55    1.93
  -5  -1  -1    8.65    1.35
   5   1   1    6.79    0.76
  -5   1  -1    8.35    1.06
  -5   1  -1   10.33    1.62
   5   1   1    7.15    0.85
  -5   1  -1    6.53    1.93
  -5   1  -1    7.69    1.00
  -7  -1  -1    2.44    1.25
  -7  -1  -1    2.55    1.75
   7  -1   1    2.72    1.85
  -7  -1  -1    3.11    1.75
   7  -1   1    3.92    0.67
  -7   1  -1    4.64    2.26
  -7   1  -1    3.06    1.31
  -7   1  -1    6.63    2.58
  -7   1  -1    4.48    1.25
   7   1   1    3.95    0.70
  -9  -1  -1    4.89    2.29
   9  -1   1    3.53    0.79
  -9  -1  -1    2.39    2.25
  -9  -1  -1    2.59    1.56
  -9   1  -1    3.01    1.68
  -9   1  -1    1.44    2.45
  -9   1  -1    0.89    2.67
   9   1   1    3.17    0.78
  -9   1  -1    1.39    2.13
  11  -1   1  125.58    9.68
 -11  -1  -1  127.52   11.62
 -11  -1  -1  128.10   10.62
 -11  -1  -1  129.48   11.79
 -11   1  -1  133.59   10.74
  11   1   1  125.38    9.67
 -11   1  -1  122.29   11.88
 -11   1  -1  131.51   12.12
  11   1   1  149.25    9.59
 -13  -1  -1   -0.48    4.05
 -13  -1  -1    1.54    2.22
 -13  -1  -1    6.16    3.86
  13  -1   1    1.19    0.91
 -13   1  -1    3.66    5.77
  13   1   1    0.18    0.67
 -13   1  -1    2.74    4.45
  13   1   1    0.75    0.77
 -15  -1  -1    3.60    5.81
  15  -1   1    4.12    1.40
 -15  -1  -1    8.64    3.69
 -15  -1  -1    1.86    5.12
 -15   1  -1   -1.88    5.89
 -15   1  -1    5.32    6.56
  15   1   1    4.16    1.43
 -15   1  -1   -0.04    3.29
  15   1   1    3.21    0.97
  17  -1   1   12.05    2.22
  17  -1   1   11.97    2.12
 -17  -1  -1   11.31    8.32
 -17  -1  -1    9.42    9.44
 -17  -1  -1   19.11    5.08
 -17   1  -1    8.34    4.80
  17   1   1   11.40    1.85
 -17   1  -1   16.85   10.07
  17   1   1    7.53    1.89
 -17   1  -1   15.07    8.77
 -19  -1  -1   16.25    6.07
  19  -1   1   23.55    3.19
 -19  -1  -1   30.75   13.82
  19  -1   1   23.63    2.85
 -19  -1  -1   13.94   13.98
 -19   1  -1   34.41    7.46
 -19   1  -1   21.67   14.54
  19   1   1   21.24    2.79
  19   1   1   21.99    3.12
  20  -2  -1   16.41    2.96
 -20  -2   1   26.57    7.23
 -20  -2   1   -5.96   13.19
  20   2  -1   14.53    2.89
 -20   2   1    7.47    7.43
  20   2  -1   12.12    2.38
 -18  -2   1   50.78   13.59
 -18  -2   1   41.08   11.29
 -18  -2   1   36.22    6.86
  18  -2  -1   32.92    4.14
 -18   2   1   37.46    7.56
  18   2  -1   36.18    3.86
  18   2  -1   38.76    4.24
  16  -2  -1   40.78    4.26
 -16  -2   1   49.70    8.37
 -16  -2   1   48.76    6.38
  16   2  -1   36.45    4.01
 -16   2   1   41.56    8.59
  16   2  -1   40.93    3.89
 -16   2   1   41.04    6.83
 -14  -2   1    6.29    2.96
  14  -2  -1   -0.96    1.19
 -14  -2   1    4.81    3.62
 -14  -2   1   -2.65    3.01
 -14   2   1   -0.26    2.49
 -14   2   1    8.45    5.46
  14   2  -1   -0.83    1.14
 -14   2   1    0.52    4.96
 -12  -2   1   35.80    3.94
 -12  -2   1   32.12    5.14
  12  -2  -1   28.88    3.03
 -12  -2   1   31.17    4.82
 -12   2   1   46.37    5.95
 -12   2   1   32.69    4.30
  12   2  -1   31.93    2.96
 -12   2   1   27.90    2.69
  10  -2  -1   90.06    6.02
 -10  -2   1   73.06    6.62
  10  -2  -1   78.58    6.08
 -10  -2   1   78.09    7.09
 -10  -2   1   82.43    7.06
 -10   2   1   72.23    7.27
 -10   2   1   73.71    8.39
 -10   2   1   74.17    5.73
  10   2  -1   72.15    5.92
 -10   2   1   72.05    6.73
   8  -2  -1  337.95   24.06
  -8  -2   1  352.03   24.54
   8  -2  -1  354.58   24.17
   8   2  -1  325.04   24.02
  -8   2   1  334.12   24.54
  -8   2   1  332.17   24.54
  -8   2   1  335.81   23.88
  -8   2   1  324.79   24.47
   8   2  -1  346.48   24.36
  -6  -2   1    6.02    1.17
   6  -2  -1    4.59    0.99
   6  -2  -1    3.52    1.00
   6   2  -1    6.33    1.17
  -6   2   1    3.05    1.23
   6   2  -1    5.51    1.07
  -6   2   1    1.44    1.84
   6   2  -1    4.66    0.79
   6   2  -1    5.44    0.61
  -6   2   1    3.76    0.59
  -6   2   1    5.01    1.49
  -6   2   1    5.46    1.36
   4  -2  -1  310.33   25.31
  -4  -2   1  341.13   25.30
   4  -2  -1  353.14   25.28
  -4  -2   1  390.96   25.69
  -4  -2   1  348.81   25.23
   4   2  -1  372.41   24.95
  -4   2   1  341.63   25.06
  -4   2   1  343.10   25.06
  -4   2   1  375.60   25.41
   4   2  -1  361.77   25.12
   4   2  -1  379.22   25.34
   4   2  -1  361.40   25.28
  -2  -2   1   67.37    5.48
   2  -2  -1   75.36    5.50
   2  -2  -1   71.98    5.38
   2  -2  -1   79.90    5.69
  -2  -2   1   76.93    5.36
   2  -2  -1   70.39    6.06
  -2  -2   1   84.19    5.23
  -2  -2   1   76.42    5.73
   2   2  -1   69.88    5.50
  -2   2   1   69.38    5.39
   2   2  -1   75.29    5.33
   0  -2   1  207.97   14.63
   0  -2   1  173.53   14.64
   0  -2  -1  222.32   14.69
   0  -2  -1  209.73   14.70
   0  -2  -1  215.84   14.70
   0  -2   1  195.84   14.79
   0  -2   1  214.24   14.65
   0   2  -1  211.42   14.65
   0   2   1  205.69   14.69
   0   2  -1  228.60   14.77
   0   2  -1  205.49   14.78
   0   2   1  213.79   14.70
   2  -2   1   14.78    1.12
   2  -2   1   14.96    1.20
   2  -2   1   15.37    2.57
   2  -2   1   17.93    2.95
   2  -2   1   12.22    1.03
   2  -2   1   11.64    1.07
   2  -2   1   13.73    1.08
   2   2   1   14.17    1.14
  -2   2  -1   16.93    2.36
  -2   2  -1   14.09    1.06
  -2   2  -1   16.64    2.31
   2   2   1   14.57    1.03
  -2   2  -1   12.43    1.15
  -4  -2  -1   61.55    5.30
   4  -2   1   73.79    6.59
   4  -2   1   64.21    5.86
  -4  -2  -1   65.85    4.97
  -4  -2  -1   59.12    5.22
  -4   2  -1   52.77    5.89
  -4   2  -1   64.96    4.60
   4   2   1   61.84    4.62
  -4   2  -1   70.43    6.17
   4   2   1   60.97    4.56
  -4   2  -1   64.01    5.32
  -6  -2  -1  286.20   19.82
  -6  -2  -1  271.25   20.19
  -6  -2  -1  262.84   20.21
   6  -2   1  318.12   20.14
   6  -2   1  241.29   19.32
   6   2   1  278.43   19.29
  -6   2  -1  259.85   19.48
   6   2   1  273.97   19.35
  -6   2  -1  264.72   19.35
  -6   2  -1  273.19   20.79
  -6   2  -1  273.91   20.72
  -6   2  -1  283.03   20.09
  -6   2  -1  272.83   19.32
   8  -2   1   50.04    4.89
  -8  -2  -1   45.93    5.13
  -8  -2  -1   54.10    4.48
  -8  -2  -1   44.67    5.04
   8  -2   1   46.03    3.76
   8   2   1   50.18    3.67
  -8   2  -1   42.72    5.98
   8   2   1   47.47    3.76
  -8   2  -1   47.70    4.54
  -8   2  -1   44.32    6.30
  -8   2  -1   51.06    4.83
  10  -2   1   29.54    2.83
 -10  -2  -1   35.72    5.08
 -10  -2  -1   34.22    4.95
 -10  -2  -1   35.17    3.72
  10   2   1   32.97    2.84
 -10   2  -1   39.79    5.86
 -10   2  -1   32.33    4.68
  10   2   1   34.50    2.72
 -10   2  -1   30.27    5.59
 -10   2  -1   33.12    4.15
  12  -2   1   62.33    4.94
 -12  -2  -1   58.91    7.51
 -12  -2  -1   47.19    7.31
 -12  -2  -1   63.14    6.09
  12   2   1   63.66    4.96
 -12   2  -1   48.08    8.02
 -12   2  -1   64.34    6.35
 -12   2  -1   72.44   10.00
  12   2   1   63.73    4.78
 -14  -2  -1   66.34    7.78
 -14  -2  -1   66.52    9.80
 -14  -2  -1   70.56    9.38
  14  -2   1   72.92    6.32
  14   2   1   74.09    6.15
 -14   2  -1   75.93    9.01
  14   2   1   87.06    5.93
 -14   2  -1   82.97   10.91
 -14   2  -1   76.89   11.06
  16  -2   1    7.98    1.78
 -16  -2  -1    3.73    7.41
 -16  -2  -1   10.04    4.24
 -16  -2  -1   11.24    6.91
 -16   2  -1    6.21    8.85
  16   2   1    8.18    1.62
  16   2   1    8.66    1.80
 -16   2  -1   11.13    4.63
 -16   2  -1   14.11    8.24
  18  -2   1   10.09    2.18
  18  -2   1    9.85    1.92
 -18  -2  -1   12.66   10.32
 -18  -2  -1   10.63    5.14
 -18  -2  -1    8.86   10.87
  18   2   1    9.37    2.14
 -18   2  -1   13.75   11.00
  18   2   1    6.75    1.71
 -18   2  -1    7.37    5.71
 -20  -2  -1   -0.30   14.68
  20  -2   1    5.50    2.10
 -20  -2  -1    9.79    6.11
 -20  -2  -1   -2.34   14.26
  20  -2   1    6.38    2.24
 -20   2  -1   -7.09    6.24
  20   2   1    4.50    2.07
  20   2   1    4.16    2.23
 -19  -3   1   36.69    7.62
 -19  -3   1   59.97   13.92
 -19  -3   1   39.27   12.00
  19  -3  -1   40.34    4.71
  19   3  -1   44.50    4.39
 -19   3   1   37.28    8.28
  19   3  -1   39.32    4.58
 -17  -3   1   43.15    6.78
 -17  -3   1   35.83    9.94
  17  -3  -1   33.88    3.97
 -17  -3   1   33.36    8.60
  17   3  -1   27.44    3.52
 -17   3   1   28.44    6.50
  17   3  -1   36.31    3.77
  15  -3  -1   95.88    7.89
 -15  -3   1   86.30   11.77
 -15  -3   1   98.96   10.89
 -15  -3   1  105.71    9.61
  15   3  -1  101.95    7.65
  15   3  -1   96.18    7.81
 -15   3   1   98.94   10.18
 -15   3   1   96.08    9.71
 -13  -3   1  127.91   12.20
 -13  -3   1  143.05   12.51
 -13  -3   1  149.65   11.74
  13  -3  -1  134.95   10.61
 -13   3   1  140.83   10.36
 -13   3   1  124.94   11.92
  13   3  -1  155.10   10.47
 -13   3   1  141.71   11.94
 -11  -3   1   48.52    5.38
 -11  -3   1   47.93    5.65
  11  -3  -1   45.86    3.97
 -11  -3   1   51.66    4.81
 -11   3   1   44.90    5.09
  11   3  -1   41.73    3.77
 -11   3   1   44.98    3.63
 -11   3   1   40.52    5.51
 -11   3   1   46.22    5.54
   9  -3  -1   38.55    3.27
  -9  -3   1   40.15    4.03
   9  -3  -1   36.80    3.40
   9  -3  -1   45.52    3.56
  -9   3   1   45.43    4.45
  -9   3   1   35.75    5.78
   9   3  -1   38.26    3.24
  -9   3   1   34.96    4.08
   9   3  -1   39.63    4.38
  -9   3   1   35.76    3.06
  -9   3   1   39.94    4.35
   7  -3  -1  143.60   11.08
   7  -3  -1  146.34   11.11
   7  -3  -1  160.03   11.27
  -7  -3   1  155.57   11.36
  -7   3   1  152.39   10.82
   7   3  -1  149.72   11.22
  -7   3   1  128.78   12.07
  -7   3   1  170.65   11.71
   7   3  -1  156.44   10.63
   7   3  -1  144.96   10.89
  -5  -3   1  369.98   28.13
   5  -3  -1  373.30   28.04
  -5  -3   1  385.90   27.98
   5  -3  -1  369.89   28.10
  -5   3   1  428.13   28.77
  -5   3   1  381.93   27.80
   5   3  -1  388.08   27.85
  -5   3   1  418.76   28.44
   5   3  -1  403.11   28.07
  -5   3   1  384.66   27.80
  -5   3   1  449.37   28.40
   3  -3  -1  111.15    8.01
  -3  -3   1  105.25    7.74
   3  -3  -1  108.51    7.84
   3  -3  -1  110.66    8.57
   3  -3  -1  106.45    7.96
  -3  -3   1  121.40    8.24
  -3  -3   1   94.07    7.74
  -3   3   1  103.63    7.65
   3   3  -1  101.77    7.57
  -3   3   1   98.41    7.56
   3   3  -1  109.53    7.81
   3   3  -1  105.77    7.57
  -1  -3   1    8.70    0.80
  -1  -3   1    7.88    1.08
  -1  -3   1    9.75    0.75
  -1  -3   1   12.06    1.36
  -1  -3   1    9.27    0.80
   1   3  -1    9.26    0.75
   1   3  -1    9.41    0.86
   1   3  -1    9.36    0.77
   1   3  -1   10.03    0.77
   1   3  -1    9.27    1.04
  -1   3   1    8.62    0.84
  -1   3   1    9.63    0.86
  -1   3   1    8.75    0.87
   1  -3   1  282.50   22.46
  -1  -3  -1  313.54   22.62
   1  -3   1  354.53   22.47
  -1  -3  -1  310.20   22.44
   1  -3   1  326.88   22.68
  -1   3  -1  306.08   22.46
   1   3   1  345.15   22.52
  -1   3  -1  313.45   22.47
   1   3   1  335.55   22.53
   1   3   1  315.49   22.54
   3  -3   1  575.25   34.95
   3  -3   1  478.95   36.04
  -3  -3  -1  493.13   35.22
   3  -3   1  496.43   34.91
   3  -3   1  553.58   35.01
   3   3   1  461.34   34.98
  -3   3  -1  540.46   35.82
   3   3   1  468.57   34.92
   3   3   1  485.34   34.97
  -3   3  -1  489.87   34.98
  -3   3  -1  470.91   34.94
   3   3   1  464.34   34.98
  -5  -3  -1  238.74   16.48
   5  -3   1  205.39   16.06
   5  -3   1  257.02   17.45
  -5   3  -1  228.48   16.96
   5   3   1  240.88   16.11
  -5   3  -1  223.40   16.06
  -5   3  -1  223.75   17.18
   5   3   1  220.38   16.03
   5   3   1  227.62   16.09
  -5   3  -1  201.81   17.93
  -7  -3  -1    5.60    2.01
  -7  -3  -1    2.10    1.61
   7  -3   1    6.94    2.19
   7  -3   1    3.38    0.74
  -7  -3  -1    6.76    1.59
  -7   3  -1    4.89    0.81
  -7   3  -1    3.23    3.26
  -7   3  -1    3.08    1.71
   7   3   1    4.80    1.11
  -7   3  -1    5.19    2.76
   7   3   1    7.18    0.90
   7   3   1    4.95    0.73
   9  -3   1  269.66   17.51
  -9  -3  -1  250.15   17.60
  -9  -3  -1  194.62   17.93
  -9  -3  -1  222.43   18.10
   9  -3   1  235.00   16.81
  -9   3  -1  210.08   16.97
   9   3   1  236.39   16.81
   9   3   1  252.66   17.15
  -9   3  -1  225.74   18.78
   9   3   1  233.83   16.70
  -9   3  -1  248.67   18.01
  -9   3  -1  241.60   18.95
  -9   3  -1  226.05   17.84
  11  -3   1  167.23   11.83
 -11  -3  -1  159.27   13.67
 -11  -3  -1  169.43   13.87
 -11  -3  -1  166.46   12.74
 -11   3  -1  132.24   12.98
  11   3   1  168.23   11.69
  11   3   1  171.71   11.85
 -11   3  -1  152.72   14.75
 -11   3  -1  146.88   14.29
 -11   3  -1  165.04   13.22
  13  -3   1   25.55    2.58
 -13  -3  -1   30.03    5.80
 -13  -3  -1   30.14    5.27
 -13   3  -1   26.65    6.36
  13   3   1   22.84    2.38
  13   3   1   26.63    4.02
 -13   3  -1   25.36    6.18
 -13   3  -1   27.38    4.53
 -13   3  -1   36.46    7.45
 -15  -3  -1    0.74    3.01
 -15  -3  -1   -3.36    4.66
  15  -3   1    2.77    1.35
 -15  -3  -1    9.04    6.29
  15   3   1    2.40    1.11
  15   3   1    0.72    1.33
 -15   3  -1    0.07    3.62
 -15   3  -1    4.30    6.43
 -15   3  -1   -9.24    7.61
  17  -3   1   30.92    3.78
 -17  -3  -1   41.06    6.74
 -17  -3  -1   31.95    9.94
 -17  -3  -1   30.22   10.21
 -17   3  -1   38.48    7.08
  17   3   1   34.67    3.87
 -17   3  -1   45.31   10.35
  17   3   1   34.73    3.50
  19  -3   1   68.80    5.35
 -19  -3  -1   48.29    8.65
 -19  -3  -1   58.67   15.22
  19  -3   1   62.62    5.72
 -19  -3  -1   53.41   14.28
  19   3   1   53.58    5.36
 -19   3  -1   53.76    9.58
  19   3   1   59.48    5.75
 -20  -4   1   54.00   15.30
  20  -4  -1   42.67    4.94
 -20  -4   1   64.77   14.70
 -20  -4   1   29.38    7.69
  20   4  -1   33.03    4.23
 -20   4   1   13.92    8.64
  20   4  -1   37.50    4.63
 -18  -4   1   95.28   10.78
 -18  -4   1   87.61   13.49
  18  -4  -1  103.90    8.38
 -18  -4   1   99.44   15.10
  18   4  -1   93.18    7.94
 -18   4   1  101.22   12.47
  18   4  -1  105.65    8.27
  16  -4  -1   65.50    6.06
 -16  -4   1   65.44    7.96
 -16  -4   1   82.62   11.95
 -16  -4   1   70.76   10.27
  16   4  -1   68.63    5.73
  16   4  -1   70.46    5.89
 -16   4   1   62.75    8.94
 -14  -4   1    3.04    3.02
  14  -4  -1    5.50    1.65
 -14  -4   1    8.87    3.99
  14   4  -1    4.60    1.42
 -14   4   1    6.07    3.14
  14   4  -1    5.98    1.37
 -12  -4   1  137.84   11.66
 -12  -4   1  140.36   11.64
 -12  -4   1  137.95   10.81
  12  -4  -1  124.82    9.90
  12   4  -1  126.64    9.66
  12   4  -1  135.20    9.79
 -12   4   1  126.88   11.29
 -12   4   1  129.33    9.62
 -12   4   1  117.99   12.94
  10  -4  -1  296.34   18.30
  10  -4  -1  243.16   18.53
 -10  -4   1  249.94   19.13
  10   4  -1  273.87   18.00
  10   4  -1  238.58   18.34
 -10   4   1  237.91   19.96
  10   4  -1  237.45   18.29
 -10   4   1  261.71   19.58
 -10   4   1  253.90   18.27
   8  -4  -1  132.44   10.85
  -8  -4   1  145.30   11.23
   8  -4  -1  148.08   10.82
   8  -4  -1  148.09   10.94
  -8   4   1  175.27   12.36
   8   4  -1  139.57   10.67
   8   4  -1  137.23   10.62
  -8   4   1  154.36   11.76
   8   4  -1  147.29   11.15
  -8   4   1  152.39   10.61
  -6  -4   1    3.69    0.87
   6  -4  -1    5.49    1.54
   6  -4  -1    4.71    1.19
   6  -4  -1    3.91    0.93
  -6  -4   1    5.63    1.22
  -6   4   1    5.92    0.76
  -6   4   1    7.06    1.89
   6   4  -1    3.95    0.70
   6   4  -1    4.24    1.24
   6   4  -1    4.47    0.71
   4  -4  -1  109.50    8.26
  -4  -4   1  106.57    7.89
   4  -4  -1  108.06    8.03
   4  -4  -1  104.81    8.17
   4  -4  -1  100.38    8.85
  -4  -4   1  102.90    8.03
   4   4  -1  109.59    8.03
  -4   4   1   99.70    7.69
   4   4  -1  117.46    7.75
  -4   4   1  106.17    7.71
   4   4  -1  113.41    7.72
  -4   4   1  104.69    7.82
  -2  -4   1  261.33   18.48
  -2  -4   1  271.87   18.12
   2   4  -1  254.49   18.39
   2   4  -1  258.34   18.11
  -2   4   1  252.46   18.22
   2   4  -1  255.59   18.19
   2   4  -1  263.43   18.22
  -2   4   1  252.88   18.28
   2   4  -1  256.53   18.20
  -2   4   1  254.73   18.23
   0  -4   1  313.39   23.26
   0  -4   1  335.16   23.00
   0   4   1  317.70   23.10
   0   4  -1  321.21   23.03
   0   4   1  324.88   23.07
   0   4   1  331.90   23.11
   0   4  -1  344.92   23.06
   0   4  -1  333.14   23.03
  -2  -4  -1   20.77    1.85
  -2  -4  -1   21.53    1.55
   2  -4   1   20.64    1.75
   2   4   1   20.30    1.68
  -2   4  -1   19.46    1.57
   2   4   1   19.64    1.63
   2   4   1   18.81    1.61
  -2   4  -1   20.87    1.63
   4  -4   1   67.85    4.95
   4  -4   1   70.78    4.62
  -4  -4  -1   64.41    5.09
   4  -4   1   58.30    6.94
   4  -4   1   65.65    4.75
  -4   4  -1   65.00    4.72
   4   4   1   61.85    4.73
   4   4   1   64.55    4.74
  -4   4  -1   65.27    4.71
   4   4   1   57.60    4.69
   4   4   1   55.99    4.81
  -6  -4  -1  665.93   47.12
   6  -4   1  751.85   48.11
   6  -4   1  603.23   46.65
  -6   4  -1  601.91   47.67
  -6   4  -1  744.69   47.75
   6   4   1  611.62   46.61
   6   4   1  669.00   46.70
   6   4   1  637.25   46.66
  -6   4  -1  711.85   47.71
  -6   4  -1  659.26   46.65
  -8  -4  -1  222.35   17.25
   8  -4   1  211.49   15.94
  -8  -4  -1  212.09   17.28
  -8  -4  -1  240.56   16.67
   8  -4   1  245.30   16.85
  -8   4  -1  237.71   17.33
  -8   4  -1  227.19   17.30
   8   4   1  210.67   15.85
   8   4   1  231.55   16.14
  -8   4  -1  217.23   15.91
   8   4   1  223.22   15.96
  -8   4  -1  195.44   17.33
  10  -4   1    3.36    0.90
 -10  -4  -1    8.08    2.82
 -10  -4  -1    3.38    1.88
 -10  -4  -1    2.01    2.32
 -10   4  -1    3.65    3.56
  10   4   1    2.71    0.68
 -10   4  -1    4.27    2.24
  10   4   1    2.73    0.81
  10   4   1    0.65    1.95
 -10   4  -1    7.77    4.17
  12  -4   1   63.27    5.27
 -12  -4  -1   65.54    7.57
 -12  -4  -1   67.40    6.55
 -12  -4  -1   80.38    8.25
  12   4   1   64.10    5.31
 -12   4  -1   68.84    8.29
 -12   4  -1   66.69    9.34
 -12   4  -1   62.33    7.25
  12   4   1   66.97    5.13
  14  -4   1  101.71    7.69
 -14  -4  -1  100.30    9.41
 -14  -4  -1  109.14   11.37
 -14  -4  -1   91.87   11.81
 -14   4  -1   82.53   11.17
  14   4   1  101.62    7.75
 -14   4  -1  103.52   10.56
 -14   4  -1   84.27   12.00
  16  -4   1   70.95    5.93
 -16  -4  -1   62.69   11.32
 -16  -4  -1   73.00    8.23
 -16  -4  -1   62.06   11.54
  16   4   1   68.61    5.72
 -16   4  -1   59.43    8.90
 -16   4  -1   75.85    9.87
  16   4   1   72.82    6.01
 -18  -4  -1   26.40    6.16
 -18  -4  -1   22.24   11.06
  18  -4   1   14.01    2.64
 -18  -4  -1   17.91    9.77
  18   4   1   16.18    2.43
  18   4   1   16.46    2.71
 -18   4  -1   11.26    6.25
 -20  -4  -1   10.61    6.53
 -20  -4  -1    4.69   14.56
 -20  -4  -1   27.28   14.45
  20  -4   1   10.08    2.62
  20   4   1    6.16    2.19
  20   4   1   12.20    2.80
 -20   4  -1   -4.48    7.45
 -19  -5   1   15.85    6.25
  19  -5  -1   16.61    3.01
 -19  -5   1    4.43   10.29
 -19  -5   1    6.54    9.45
  19   5  -1    8.56    2.19
 -19   5   1   21.07    8.41
  19   5  -1    8.42    2.41
 -17  -5   1   15.36    6.94
  17  -5  -1    7.51    2.34
 -17  -5   1   11.40    4.51
 -17  -5   1   19.69    8.14
 -17   5   1    9.75    5.91
  17   5  -1   10.59    2.07
  17   5  -1   14.05    2.49
 -15  -5   1   90.70    9.78
 -15  -5   1  100.39   12.54
  15  -5  -1  103.29    8.22
 -15  -5   1   91.84   11.84
  15   5  -1  105.15    8.07
  15   5  -1  100.59    7.88
 -15   5   1  105.44   11.23
 -13  -5   1  192.08   16.51
 -13  -5   1  198.33   16.37
 -13  -5   1  187.36   15.46
  13  -5  -1  188.03   14.28
  13   5  -1  200.58   14.08
 -13   5   1  183.51   15.90
  13   5  -1  190.84   14.17
  11  -5  -1   74.40    6.31
 -11  -5   1   78.51    7.11
 -11   5   1   79.55    6.01
  11   5  -1   79.69    6.11
 -11   5   1   79.48    8.04
  11   5  -1   78.87    6.03
  -9  -5   1   30.46    3.45
   9  -5  -1   28.09    2.97
   9  -5  -1   31.11    2.87
  -9   5   1   35.13    4.66
  -9   5   1   31.21    2.55
   9   5  -1   24.51    3.58
   9   5  -1   28.65    2.59
   9   5  -1   27.01    2.54
  -7  -5   1  187.53   13.67
  -7  -5   1  186.28   13.26
   7  -5  -1  159.12   13.62
   7  -5  -1  171.36   13.38
   7   5  -1  182.03   13.11
   7   5  -1  191.32   13.15
   7   5  -1  199.37   13.59
  -7   5   1  184.65   13.09
   5  -5  -1  468.78   33.54
   5  -5  -1  394.29   33.56
   5  -5  -1  482.58   33.44
  -5  -5   1  466.43   33.24
   5  -5  -1  476.92   33.18
  -5  -5   1  471.36   33.00
  -5   5   1  492.35   32.85
   5   5  -1  477.52   33.15
   5   5  -1  392.51   32.80
  -5   5   1  504.37   32.85
   5   5  -1  517.70   32.88
   5   5  -1  444.57   32.79
  -3  -5   1  261.96   17.80
  -3  -5   1  280.52   17.34
  -3  -5   1  250.05   17.70
   3   5  -1  248.56   17.43
   3   5  -1  242.86   17.42
  -3   5   1  233.71   17.43
  -3   5   1  239.64   17.53
   3   5  -1  236.00   17.45
   3   5  -1  231.78   17.29
   3   5  -1  252.50   17.66
  -3   5   1  234.25   17.45
  -1  -5   1   68.23    5.31
   1   5  -1   64.03    5.02
   1   5  -1   70.52    5.22
   1   5  -1   71.82    5.00
  -1   5   1   70.30    5.10
   1   5  -1   68.84    4.96
  -1   5   1   70.07    5.07
  -1  -5  -1  189.33   14.02
  -1  -5  -1  208.80   14.23
   1  -5   1  189.14   14.25
  -1   5  -1  213.26   14.02
  -1   5  -1  187.65   13.99
   1   5   1  190.91   14.05
   1   5   1  220.89   14.01
  -1   5  -1  193.59   13.98
   1   5   1  186.46   14.06
  -3  -5  -1  512.38   36.35
   3  -5   1  558.53   37.92
  -3  -5  -1  504.64   36.75
   3  -5   1  498.34   36.47
  -3   5  -1  513.10   36.47
  -3   5  -1  565.92   36.51
   3   5   1  545.52   36.51
   3   5   1  488.87   36.40
  -3   5  -1  521.14   36.44
   3   5   1  488.26   36.51
  -5  -5  -1  202.92   15.13
   5  -5   1  204.30   14.74
   5  -5   1  198.03   16.96
   5   5   1  210.11   14.72
   5   5   1  222.26   14.71
   5   5   1  202.40   14.72
   5   5   1  213.21   14.68
   5   5   1  186.69   14.69
  -5   5  -1  210.79   14.71
   7  -5   1    5.30    0.94
  -7  -5  -1    6.12    1.58
   7  -5   1    8.69    3.94
   7   5   1    6.30    0.97
   7   5   1    4.42    0.78
  -7   5  -1    4.40    0.83
   7   5   1    7.87    1.25
  -9  -5  -1  147.21   11.51
  -9  -5  -1  146.68   12.48
   9  -5   1  142.00   10.70
   9  -5   1  160.17   11.75
  -9  -5  -1  141.75   12.27
  -9   5  -1  153.39   12.37
   9   5   1  143.83   10.61
  -9   5  -1  146.50   10.69
   9   5   1  142.95   11.01
   9   5   1  142.84   10.70
  -9   5  -1  146.45   12.52
 -11  -5  -1  250.01   18.79
  11  -5   1  256.47   17.79
 -11  -5  -1  242.50   19.67
 -11  -5  -1  249.76   19.89
  11   5   1  244.19   18.34
 -11   5  -1  248.69   19.08
 -11   5  -1  244.08   19.52
  11   5   1  233.34   17.65
  11   5   1  246.87   17.79
  13  -5   1  128.53    9.81
 -13  -5  -1  119.27   13.09
 -13  -5  -1  134.21   12.94
 -13  -5  -1  122.46   11.13
 -13   5  -1  144.25   12.04
  13   5   1  132.91    9.92
 -13   5  -1  132.30   12.10
  15  -5   1    1.88    1.48
 -15  -5  -1   -5.58    5.44
 -15  -5  -1    5.02    6.14
 -15  -5  -1   -1.69    3.04
  15   5   1    1.95    1.30
 -15   5  -1    3.55    4.31
  15   5   1    4.19    1.27
 -17  -5  -1  133.08   16.90
 -17  -5  -1  128.71   12.88
  17  -5   1  135.40   10.66
 -17  -5  -1  124.03   17.51
  17   5   1  141.51   10.77
  17   5   1  147.01   10.57
 -17   5  -1  135.70   14.69
  19  -5   1   99.95    8.10
 -19  -5  -1   85.58   16.12
 -19  -5  -1  121.56   18.49
 -19  -5  -1   86.02   11.36
  19   5   1   94.23    7.74
 -19   5  -1   55.50   11.73
  19   5   1  101.17    8.07
 -18  -6   1   79.18   13.14
 -18  -6   1   62.59   11.92
  18  -6  -1   57.99    5.69
 -18  -6   1   52.28    7.82
 -18   6   1   55.57   10.20
  18   6  -1   51.11    5.20
  18   6  -1   54.01    5.46
  16  -6  -1   40.47    4.46
 -16  -6   1   42.82    8.78
 -16  -6   1   41.09    6.61
 -16  -6   1   42.68    9.07
  16   6  -1   36.19    4.04
  16   6  -1   36.62    3.81
 -16   6   1   33.25    7.75
 -14  -6   1   27.89    5.03
 -14  -6   1   39.10    7.66
 -14  -6   1   34.74    6.90
  14  -6  -1   36.16    4.04
  14   6  -1   32.52    3.28
 -14   6   1   35.96    6.31
 -14   6   1   29.70    3.35
  14   6  -1   34.91    3.55
  12  -6  -1   39.67    4.03
 -12  -6   1   50.66    5.70
  12   6  -1   44.90    3.78
  12   6  -1   40.35    3.87
 -12   6   1   40.75    6.04
 -10  -6   1  456.51   33.91
  10  -6  -1  531.90   32.86
  10  -6  -1  427.47   33.29
 -10   6   1  477.58   33.07
  10   6  -1  473.25   33.08
  10   6  -1  424.48   33.09
   8  -6  -1  189.50   14.76
   8  -6  -1  191.74   14.62
  -8  -6   1  198.43   15.03
   8   6  -1  212.66   14.38
  -8   6   1  203.71   14.30
   8   6  -1  191.18   14.30
   8   6  -1  204.36   14.92
   6  -6  -1    3.15    0.98
   6  -6  -1    6.59    3.59
   6  -6  -1   -0.25    2.80
  -6  -6   1    1.36    0.94
   6  -6  -1    4.36    1.76
  -6  -6   1    1.49    0.76
   6  -6  -1   -1.42    2.03
   6   6  -1    1.91    0.60
   6   6  -1    2.69    0.67
  -6   6   1    2.15    0.57
  -6   6   1    2.35    0.63
   6   6  -1    2.42    0.59
   6   6  -1    3.11    1.51
  -4  -6   1  118.78    8.75
  -4  -6   1  129.60    9.35
   4  -6  -1  135.84    9.50
  -4  -6   1  119.53    9.11
  -4   6   1  122.64    9.02
   4   6  -1  119.78    8.86
   4   6  -1  120.83    8.88
   4   6  -1  134.77    9.17
  -4   6   1  116.69    8.88
   4   6  -1  117.33    8.67
   4   6  -1  124.54    8.92
  -2  -6   1  637.30   47.66
  -2   6   1  642.54   47.34
   2   6  -1  711.82   47.52
   2   6  -1  686.55   47.25
  -2   6   1  668.67   47.38
   2   6  -1  705.52   47.38
  -2   6   1  668.83   47.43
   2   6  -1  672.45   47.32
   0  -6   1  174.61   14.17
   0   6   1  193.05   13.99
   0   6   1  195.63   13.91
   0   6  -1  191.71   13.93
   0   6  -1  222.65   13.91
   0   6  -1  212.21   13.90
   0   6   1  179.72   13.95
  -2  -6  -1   -0.03    0.69
  -2  -6  -1    1.84    0.58
   2  -6   1    0.57    0.71
  -2   6  -1    0.96    0.40
   2   6   1    1.39    0.50
  -2   6  -1    0.06    0.35
   2   6   1    1.09    0.36
   2   6   1    1.26    0.48
  -2   6  -1    0.73    0.44
   4  -6   1   15.16    1.64
  -4  -6  -1   17.05    2.01
   4  -6   1   19.40    4.74
  -4   6  -1   14.90    1.57
   4   6   1   16.23    1.56
  -4   6  -1   16.14    1.44
   4   6   1   14.62    1.49
  -4   6  -1   16.44    1.50
   4   6   1   16.52    1.37
   6  -6   1  255.25   22.47
  -6  -6  -1  287.14   20.17
   6   6   1  247.74   19.58
   6   6   1  289.34   19.51
  -6   6  -1  269.76   19.57
   6   6   1  272.52   19.61
   6   6   1  279.99   19.59
   6   6   1  289.10   19.58
  -8  -6  -1  294.42   21.07
   8  -6   1  318.21   22.30
  -8   6  -1  290.04   20.34
   8   6   1  267.52   20.33
   8   6   1  250.33   20.25
   8   6   1  280.99   20.31
   8   6   1  305.78   20.47
 -10  -6  -1    6.05    3.05
 -10  -6  -1    6.67    2.71
  10  -6   1    8.36    1.38
  10  -6   1   12.81    3.17
 -10  -6  -1    7.61    2.38
  10   6   1    7.94    1.18
 -10   6  -1   10.70    1.43
  10   6   1    9.13    1.31
  10   6   1    7.59    2.37
  12  -6   1   16.38    2.03
 -12  -6  -1   12.90    5.46
 -12  -6  -1   15.38    4.79
 -12  -6  -1   10.87    3.53
  12   6   1   14.14    1.68
  12   6   1   12.38    1.91
 -12   6  -1   15.75    4.28
 -14  -6  -1  157.11   15.82
 -14  -6  -1  150.49   15.44
  14  -6   1  144.87   11.73
 -14  -6  -1  147.59   13.15
  14   6   1  151.59   11.55
  14   6   1  158.99   11.43
 -14   6  -1  167.29   15.40
  16  -6   1  143.70   11.45
 -16  -6  -1  146.52   13.57
 -16  -6  -1  140.09   16.88
 -16  -6  -1  144.14   17.32
  16   6   1  153.29   11.59
 -16   6  -1  153.83   15.92
  16   6   1  159.65   11.39
 -18  -6  -1   12.94    9.68
  18  -6   1   -0.97    1.95
 -18  -6  -1    1.13    9.68
 -18  -6  -1    6.71    5.02
  18   6   1    3.83    1.90
 -18   6  -1   11.59    7.53
  18   6   1   -0.13    1.72
 -19  -7   1   18.78   10.62
 -19  -7   1    3.22   10.84
  19  -7  -1   14.34    3.16
 -19  -7   1    7.25    5.84
  19   7  -1   16.73    2.88
  19   7  -1   13.30    2.94
 -17  -7   1    6.73    4.78
 -17  -7   1   26.51    8.64
  17  -7  -1   10.12    2.68
 -17  -7   1   13.30    8.71
  17   7  -1   11.09    2.18
  17   7  -1    9.47    2.34
 -15  -7   1   96.46   12.03
  15  -7  -1   90.07    7.61
 -15  -7   1   91.27   12.43
 -15  -7   1   91.64    9.43
  15   7  -1   93.57    7.39
  15   7  -1   82.30    7.13
 -15   7   1   85.33    7.21
 -13  -7   1  110.79   11.68
 -13  -7   1  106.29    9.35
 -13  -7   1  101.08   11.17
  13   7  -1   89.75    7.48
 -13   7   1   90.84    7.50
  13   7  -1   96.11    7.63
 -11  -7   1   29.57    4.18
  11  -7  -1   28.17    3.22
 -11   7   1   27.88    3.05
  11   7  -1   29.11    2.83
  11   7  -1   27.51    2.81
  -9  -7   1    9.42    2.19
   9  -7  -1    9.40    1.77
   9  -7  -1    9.87    1.50
   9  -7  -1   10.91    1.83
  -9   7   1   11.61    1.36
   9   7  -1   10.91    2.96
   9   7  -1   12.25    1.54
   9   7  -1    9.61    1.31
   9   7  -1   10.83    1.42
  -7  -7   1  117.27    9.75
   7  -7  -1  103.86   10.27
  -7  -7   1  126.47    9.22
   7  -7  -1  144.77   10.55
   7  -7  -1  115.88    9.68
   7  -7  -1  139.87    9.57
   7  -7  -1  117.47   11.24
  -7   7   1  125.57    9.08
   7   7  -1  111.34    9.07
   7   7  -1  130.01    9.07
   7   7  -1  134.74    9.72
  -7   7   1  124.47    9.07
   7   7  -1  124.21    9.12
   5  -7  -1  380.47   26.26
  -5  -7   1  354.98   25.46
  -5  -7   1  353.69   25.10
   5  -7  -1  375.46   25.62
   5  -7  -1  360.65   26.59
  -5   7   1  351.07   24.92
   5   7  -1  356.09   24.95
  -5   7   1  330.80   25.05
   5   7  -1  341.25   24.92
   5   7  -1  368.37   25.16
   5   7  -1  330.61   24.87
  -5   7   1  327.93   24.90
  -3  -7   1  104.57    8.33
  -3  -7   1  105.57    8.42
   3   7  -1  113.16    7.82
   3   7  -1  104.63    7.99
   3   7  -1  117.28    8.22
  -3   7   1  115.49    8.13
  -3   7   1  106.04    7.99
   3   7  -1  110.72    7.95
  -1  -7   1   28.93    2.83
  -1   7   1   29.45    2.38
  -1   7   1   32.67    2.45
   1   7  -1   31.72    2.44
  -1   7   1   27.40    2.49
   1   7  -1   32.51    2.38
   1   7  -1   26.71    2.30
  -1  -7  -1  289.55   22.82
   1  -7   1  304.00   22.89
  -1  -7  -1  303.01   22.66
  -1   7  -1  299.37   22.52
   1   7   1  327.43   22.66
   1   7   1  313.75   22.63
  -1   7  -1  354.05   22.63
  -1   7  -1  332.61   22.57
   1   7   1  347.94   22.55
  -3  -7  -1  284.24   22.58
  -3  -7  -1  321.25   22.20
  -3   7  -1  274.76   22.24
  -3   7  -1  319.52   22.26
   3   7   1  345.47   22.16
   3   7   1  319.29   22.31
   3   7   1  332.39   22.33
  -3   7  -1  314.50   22.21
   5  -7   1   22.76    2.06
  -5  -7  -1   22.71    2.44
   5  -7   1   20.66    2.04
  -5   7  -1   18.67    1.83
  -5   7  -1   18.47    2.02
   5   7   1   21.99    1.98
   5   7   1   14.82    1.78
  -5   7  -1   20.83    1.80
   5   7   1   21.57    1.67
   7  -7   1    0.45    0.77
  -7  -7  -1    0.80    1.21
   7  -7   1    5.50    7.23
  -7   7  -1    0.36    0.58
   7   7   1    0.71    0.57
   7   7   1   -0.08    0.66
   7   7   1    0.60    0.83
   7   7   1   -0.51    0.56
  -9  -7  -1  105.68    9.82
  -9  -7  -1  103.78   10.09
   9  -7   1  100.07   10.65
  -9  -7  -1   95.51    8.22
   9  -7   1   92.19    7.33
  -9   7  -1   98.71    7.33
   9   7   1   88.81    6.90
   9   7   1   99.15    7.28
   9   7   1   96.72    7.35
   9   7   1   97.47    7.32
   9   7   1  101.88    7.71
  11  -7   1  154.83   11.49
 -11  -7  -1  163.24   12.39
 -11  -7  -1  128.45   13.66
  11  -7   1  152.82   11.06
  11   7   1  143.03   11.09
 -11   7  -1  137.26   11.02
  11   7   1  143.80   10.98
  11   7   1  170.97   12.72
 -13  -7  -1  135.06   13.93
  13  -7   1  118.61    9.74
 -13  -7  -1  149.06   14.05
 -13  -7  -1  126.83   11.69
  13   7   1  137.67    9.98
  13   7   1  130.06    9.79
  13   7   1  126.11    9.85
  15  -7   1    5.73    1.74
 -15  -7  -1    4.36    3.86
 -15  -7  -1   11.06    6.62
 -15  -7  -1    3.12    6.36
  15   7   1    2.16    1.42
  15   7   1    3.47    1.52
 -17  -7  -1   75.64   13.66
  17  -7   1   90.94    7.61
 -17  -7  -1   94.00   14.26
 -17  -7  -1   97.51   10.34
  17   7   1   92.90    7.49
  17   7   1   90.24    7.73
 -19  -7  -1   47.55   14.47
 -19  -7  -1   40.60   14.66
 -19  -7  -1   81.91   10.65
  19  -7   1   71.67    6.88
  19   7   1   71.05    6.59
  19   7   1   86.51    7.24
  19   7   1   73.22    6.87
 -18  -8   1   39.96    7.31
  18  -8  -1   49.84    5.57
 -18  -8   1   40.54   10.65
 -18  -8   1   50.17   12.30
  18   8  -1   48.33    5.43
  18   8  -1   41.43    4.75
  18   8  -1   43.46    5.10
 -16  -8   1   79.47   12.61
  16  -8  -1   67.37    6.65
 -16  -8   1   68.60    9.04
 -16  -8   1   69.12   11.51
  16   8  -1   64.44    6.27
  16   8  -1   74.84    6.39
  16   8  -1   71.17    6.13
 -14  -8   1    8.65    5.64
  14  -8  -1    8.30    2.34
 -14  -8   1    7.41    3.63
 -14  -8   1    7.51    5.19
  14   8  -1    7.40    1.89
  14   8  -1    7.30    1.75
  14   8  -1    9.00    1.93
 -14   8   1    8.13    1.84
  12  -8  -1   65.19    5.22
 -12  -8   1   58.58    6.56
  12   8  -1   58.51    4.78
  12   8  -1   43.68    4.72
 -12   8   1   60.68    4.90
  12   8  -1   55.35    4.94
 -10  -8   1   68.91    6.95
  10  -8  -1   70.28    6.04
  10   8  -1   75.42    5.63
  10   8  -1   67.27    5.64
 -10   8   1   69.23    5.67
  10   8  -1   74.23    5.73
  10   8  -1   82.79    7.88
   8  -8  -1   57.69    5.09
   8  -8  -1   57.47    4.95
   8  -8  -1   62.59    5.65
   8  -8  -1   55.65    5.73
   8  -8  -1   54.00    4.40
  -8  -8   1   52.85    5.29
   8  -8  -1   53.73    6.56
   8   8  -1   53.32    4.47
   8   8  -1   58.42    4.51
  -8   8   1   56.45    4.47
   8   8  -1   56.97    5.66
   8   8  -1   54.67    4.43
  -6  -8   1    2.74    0.98
   6  -8  -1   -5.49    4.34
   6  -8  -1    1.33    1.19
   6  -8  -1    2.43    2.09
   6  -8  -1    6.77    3.29
  -6  -8   1    3.70    1.33
  -6   8   1    3.13    0.76
  -6   8   1    2.01    1.12
   6   8  -1    3.29    0.75
  -6   8   1    2.11    0.66
   6   8  -1    1.85    1.61
   6   8  -1    0.91    0.69
  -4  -8   1   82.96    6.80
  -4  -8   1  100.21    7.15
   4   8  -1   89.38    6.45
  -4   8   1   76.20    6.44
   4   8  -1   88.76    6.78
   4   8  -1   84.40    6.28
  -4   8   1   91.97    6.51
  -4   8   1   89.73    6.66
  -2  -8   1   44.11    4.15
  -2   8   1   51.64    3.61
  -2   8   1   44.21    3.60
   2   8  -1   45.74    3.47
   2   8  -1   46.99    3.64
  -2   8   1   45.85    3.72
   2   8  -1   44.71    3.56
   0  -8  -1  144.22   10.59
   0  -8   1  150.06   10.86
   0   8   1  144.72   10.47
   0   8   1  141.84   10.53
   0   8  -1  152.37   10.38
   0   8  -1  145.89   10.46
   0   8  -1  138.79   10.36
   0   8   1  139.93   10.37
   2  -8   1   33.46    3.26
  -2  -8  -1   32.56    3.21
  -2  -8  -1   32.34    3.03
  -2   8  -1   40.23    2.79
  -2   8  -1   34.57    2.80
   2   8   1   31.58    2.70
  -2   8  -1   32.34    2.85
   2   8   1   37.58    2.91
   2   8   1   38.92    2.93
  -4  -8  -1  243.02   16.82
   4  -8   1  218.06   17.11
  -4  -8  -1  232.56   17.49
   4   8   1  234.65   17.07
  -4   8  -1  242.46   17.03
  -4   8  -1  250.59   16.97
   4   8   1  229.53   16.83
   4   8   1  254.50   17.10
  -4   8  -1  238.11   17.08
  -6  -8  -1  132.86    9.99
   6  -8   1  104.75    9.28
   6  -8   1  141.24    9.53
   6  -8   1  134.76    9.33
   6  -8   1  127.77   10.19
  -6   8  -1  126.08    9.36
  -6   8  -1  122.00    9.27
   6   8   1  128.96    9.30
   6   8   1  119.92    8.98
   6   8   1  126.66    9.32
  -8  -8  -1   45.53    4.65
   8  -8   1   42.11    3.90
   8   8   1   46.47    3.85
   8   8   1   51.75    3.60
  -8   8  -1   47.68    3.83
   8   8   1   42.64    3.37
   8   8   1   46.79    3.80
   8   8   1   45.76    3.87
 -10  -8  -1    0.61    4.11
  10  -8   1   -2.18    0.99
 -10  -8  -1    0.14    3.59
 -10  -8  -1   -0.72    2.34
  10   8   1    1.51    0.87
 -10   8  -1    1.53    0.94
  10   8   1    0.33    0.84
  10   8   1   -0.15    1.74
 -12  -8  -1   61.66    9.67
  12  -8   1   72.61    5.32
 -12  -8  -1   60.07    7.29
 -12  -8  -1   62.03    9.23
  12   8   1   67.42    5.47
  12   8   1   53.81    5.31
  12   8   1   60.86    5.23
 -14  -8  -1   36.07    5.97
 -14  -8  -1   30.62    8.36
 -14  -8  -1   44.55    9.57
  14  -8   1   34.66    4.27
  14   8   1   35.76    3.93
  14   8   1   38.65    3.73
  14   8   1   37.90    3.94
 -16  -8  -1   -0.71    3.63
 -16  -8  -1    1.61    6.95
 -16  -8  -1    9.35    8.20
  16  -8   1    4.36    1.98
  16   8   1    0.19    1.91
  16   8   1    0.21    1.79
  16   8   1    6.13    1.71
  18  -8   1   17.93    3.10
 -18  -8  -1   13.51    5.52
 -18  -8  -1   21.73   11.48
 -18  -8  -1    6.33    9.96
  18   8   1   14.61    2.53
  18   8   1   12.78    3.10
  18   8   1   13.83    2.92
 -17  -9   1   -1.03    4.57
  17  -9  -1    4.28    2.63
 -17  -9   1   12.39    8.92
 -17  -9   1   -9.47    7.51
  17   9  -1    1.19    2.15
  17   9  -1    1.03    2.31
  17   9  -1   -0.34    1.80
  15  -9  -1  115.92    9.01
 -15  -9   1   95.11   13.55
 -15  -9   1   95.17   13.73
 -15  -9   1  106.00   10.85
  15   9  -1  106.96    8.42
  15   9  -1   99.71    8.53
 -15   9   1   99.71    8.43
  15   9  -1  108.48    8.58
  13  -9  -1   14.58    2.70
 -13  -9   1    6.81    3.56
 -13  -9   1    6.90    5.58
 -13  -9   1    3.68    4.85
  13   9  -1   12.42    2.04
  13   9  -1    7.51    1.82
 -13   9   1    9.88    1.88
  13   9  -1    9.42    2.02
  11  -9  -1    4.53    1.67
 -11  -9   1    9.60    3.04
  11   9  -1    2.68    1.36
  11   9  -1    3.98    1.21
  11   9  -1    2.72    1.23
 -11   9   1    0.73    1.20
   9  -9  -1    2.33    2.00
   9  -9  -1    0.10    1.32
   9  -9  -1    0.31    1.51
  -9  -9   1   -0.02    2.15
  -9   9   1    1.20    0.93
   9   9  -1    0.84    0.93
   9   9  -1    0.19    0.84
   9   9  -1    1.07    1.03
   7  -9  -1   14.77    2.42
   7  -9  -1   25.35    3.71
   7  -9  -1   40.91    7.54
  -7  -9   1   22.68    2.44
   7  -9  -1   19.36    4.58
  -7  -9   1   23.02    3.22
   7   9  -1   21.35    2.17
   7   9  -1   21.80    2.17
  -7   9   1   24.77    2.20
   7   9  -1   22.32    2.78
  -7   9   1   21.06    2.09
   7   9  -1   16.75    2.10
   5  -9  -1   17.99    4.31
  -5  -9   1   19.34    2.49
   5  -9  -1   23.99    3.24
  -5  -9   1   19.56    2.64
   5  -9  -1   17.68    2.56
  -5   9   1   15.88    1.89
   5   9  -1   19.59    1.95
  -5   9   1   20.20    2.32
   5   9  -1   23.27    2.05
  -5   9   1   20.22    1.92
  -3  -9   1   80.65    6.58
  -3  -9   1   81.10    6.62
  -3   9   1   70.08    6.00
   3   9  -1   84.36    6.02
   3   9  -1   79.17    6.11
  -3   9   1   77.24    6.22
   3   9  -1   87.34    5.89
  -3   9   1   85.50    6.09
   1  -9  -1   15.33    1.98
  -1  -9   1   14.43    2.20
   1   9  -1   14.01    1.52
   1   9  -1   17.25    1.52
  -1   9   1   15.06    1.55
  -1   9   1   14.17    1.61
   1   9  -1   16.73    1.67
  -1   9   1   17.04    1.75
  -1  -9  -1  103.57    8.03
   1  -9   1  106.33    8.16
  -1  -9  -1  100.21    7.86
   1   9   1  106.16    7.56
  -1   9  -1  110.21    7.73
   1   9   1  104.07    7.68
  -1   9  -1  106.42    7.58
  -1   9  -1  103.52    7.60
   1   9   1   93.89    7.71
   3  -9   1  145.22   11.56
  -3  -9  -1  155.58   11.04
  -3  -9  -1  148.59   11.54
  -3   9  -1  143.74   11.09
   3   9   1  145.68   11.11
   3   9   1  144.69   11.07
  -3   9  -1  157.19   10.99
   3   9   1  177.87   10.93
  -3   9  -1  147.26   11.03
  -5  -9  -1    7.43    1.64
   5  -9   1    9.97    1.91
   5  -9   1    5.29    1.26
  -5   9  -1    6.34    1.01
  -5   9  -1    7.16    1.26
   5   9   1    5.80    1.06
   5   9   1    4.41    0.96
  -5   9  -1    7.57    1.08
   5   9   1    6.92    0.85
   7  -9   1    4.22    1.13
  -7  -9  -1    1.71    1.44
   7   9   1    3.23    1.01
   7   9   1    4.02    0.99
  -7   9  -1    3.79    0.95
   7   9   1    4.83    0.69
  -9  -9  -1    8.28    2.72
   9  -9   1   12.37    1.68
  -9  -9  -1    5.10    4.08
  -9  -9  -1    3.40    3.85
   9   9   1    8.27    1.50
  -9   9  -1    8.71    1.56
   9   9   1    7.55    1.52
 -11  -9  -1   37.96    7.23
  11  -9   1   45.98    4.26
 -11  -9  -1   39.76    5.88
 -11  -9  -1   45.77    7.89
  11   9   1   50.39    4.40
 -11   9  -1   51.33    4.39
  11   9   1   44.18    4.20
  11   9   1   54.80    4.48
 -13  -9  -1    9.03    6.12
 -13  -9  -1   11.21    4.17
  13  -9   1    4.18    1.53
 -13  -9  -1   -1.51    5.22
  13   9   1    7.33    1.85
  13   9   1    4.30    1.54
  13   9   1    3.50    1.55
 -15  -9  -1   -2.96    6.40
 -15  -9  -1    2.00    4.17
 -15  -9  -1    4.65    6.73
  15  -9   1   -1.55    1.76
  15   9   1   -0.33    1.60
  15   9   1   -0.22    1.78
  15   9   1   -1.40    1.41
  17  -9   1    7.29    2.40
 -17  -9  -1   10.51    5.16
 -17  -9  -1    4.30    9.23
 -17  -9  -1   -8.38    8.22
  17   9   1    4.49    1.81
  17   9   1    1.32    2.34
  17   9   1    0.15    1.93
 -16 -10   1    3.05    7.92
  16 -10  -1   -4.11    2.49
 -16 -10   1    6.51    8.32
 -16 -10   1   -2.52    4.76
  16  10  -1   -0.90    2.24
  16  10  -1   -1.05    1.98
  16  10  -1    0.55    1.73
 -14 -10   1   -1.87    3.56
  14 -10  -1    2.26    2.46
 -14 -10   1   12.28    6.87
 -14 -10   1    1.21    6.03
 -14  10   1    0.95    1.71
  14  10  -1    0.32    1.67
  14  10  -1   -0.50    1.36
  14  10  -1    1.80    1.82
  12 -10  -1   -1.54    2.26
 -12 -10   1    2.87    3.13
  12  10  -1   -1.16    1.40
  12  10  -1   -1.78    1.24
  12  10  -1   -1.69    1.59
 -12  10   1   -1.33    1.16
 -10 -10   1    3.72    2.71
  10 -10  -1    4.14    1.92
  10  10  -1    6.98    1.38
  10  10  -1    4.66    1.38
 -10  10   1    6.13    1.43
  10  10  -1    2.76    1.58
   8 -10  -1   -0.60    3.44
   8 -10  -1    4.82    1.92
   8 -10  -1    4.53    2.71
   8 -10  -1    0.36    1.59
  -8 -10   1    1.52    2.24
   8  10  -1    3.25    1.09
  -8  10   1    0.58    1.01
   8  10  -1    3.06    1.20
   6 -10  -1    1.27    1.45
  -6 -10   1    0.49    1.14
   6 -10  -1    0.27    3.77
   6 -10  -1    1.11    2.46
  -6 -10   1    0.10    1.25
   6  10  -1    0.15    0.76
   6  10  -1    0.56    0.78
  -6  10   1   -0.10    0.71
  -6  10   1    1.19    0.70
  -6  10   1    1.24    1.31
  -4 -10   1   12.41    1.98
  -4 -10   1    8.39    1.91
  -4  10   1   12.26    1.72
  -4  10   1   11.19    1.35
   4  10  -1    9.71    1.29
   4  10  -1    9.09    1.08
   4  10  -1   10.00    1.37
  -4  10   1    8.34    1.31
   2 -10  -1   -2.33    0.99
  -2 -10   1    0.52    1.41
   2  10  -1   -0.13    0.56
  -2  10   1   -0.68    0.56
  -2  10   1   -0.35    0.60
   2  10  -1   -0.43    0.58
   2  10  -1    0.08    0.66
  -2  10   1    0.52    0.82
   0 -10   1    3.54    1.47
   0 -10  -1    1.88    1.14
   0  10   1    2.86    0.88
   0  10  -1    3.10    0.71
   0  10   1    1.98    0.70
   0  10  -1    2.22    0.77
   0  10   1    1.31    0.74
   0  10  -1    2.41    0.69
   2 -10   1    4.87    1.92
  -2 -10  -1    2.90    1.30
  -2 -10  -1    3.71    1.29
   2  10   1    3.42    0.87
   2  10   1    3.06    0.87
  -2  10  -1    3.06    0.95
  -2  10  -1    5.67    0.89
   2  10   1    2.73    0.71
  -2  10  -1    3.82    0.91
   4 -10   1   -1.55    1.51
  -4 -10  -1    0.66    0.65
   4 -10   1   -1.51    1.19
  -4 -10  -1   -0.31    1.13
   4  10   1    0.01    0.77
  -4  10  -1    2.08    1.03
  -4  10  -1    1.13    0.74
   4  10   1    0.29    0.59
   4  10   1    0.72    0.84
  -4  10  -1    1.15    0.67
   6 -10   1    0.51    2.95
   6 -10   1    1.63    2.00
   6 -10   1    1.85    1.22
   6 -10   1    2.48    2.37
  -6 -10  -1    3.00    1.53
   6 -10   1   -0.79    1.78
   6  10   1    3.56    0.69
   6  10   1    3.65    0.96
  -6  10  -1    3.10    1.27
   6  10   1    4.26    1.18
  -6  10  -1    4.13    0.94
  -8 -10  -1   -0.60    2.13
   8 -10   1    1.78    1.27
   8  10   1    1.54    1.09
   8  10   1    2.02    1.01
  -8  10  -1    0.31    1.12
   8  10   1    1.27    0.68
 -10 -10  -1    3.29    3.86
  10 -10   1   -0.34    1.33
 -10 -10  -1   -4.79    3.88
 -10 -10  -1    0.47    2.93
  10  10   1    1.05    1.20
  10  10   1   -0.24    1.34
 -10  10  -1    1.91    1.24
 -12 -10  -1    3.52    5.46
 -12 -10  -1    2.83    5.01
  12 -10   1    2.80    1.56
 -12 -10  -1    2.57    3.30
  12  10   1    2.80    1.46
  12  10   1    3.77    1.74
 -14 -10  -1   -0.17    6.57
  14 -10   1    1.71    2.03
 -14 -10  -1    1.00    3.90
 -14 -10  -1    5.84    7.37
  14  10   1   -1.89    1.81
  14  10   1    1.44    1.59
 -16 -10  -1   -7.02    4.40
 -16 -10  -1   -5.59    8.72
  16 -10   1   -0.75    2.13
 -16 -10  -1    6.59    9.45
  16  10   1   -1.42    1.82
  16  10   1    3.41    2.37
 -15 -11   1   27.88    8.90
 -15 -11   1   18.03    5.39
  15 -11  -1   40.42    4.41
 -15 -11   1   14.98    8.20
  15  11  -1   30.34    3.73
  15  11  -1   21.78    3.17
 -15  11   1   22.90    3.42
  15  11  -1   23.72    3.55
  13 -11  -1   10.50    2.91
 -13 -11   1    3.65    5.88
 -13 -11   1   12.86    4.54
 -13 -11   1    3.44    6.78
  13  11  -1    7.64    2.24
  13  11  -1    9.67    2.14
 -13  11   1    9.31    2.21
  13  11  -1    8.09    2.23
  11 -11  -1   -0.55    2.23
 -11 -11   1    1.98    3.07
  11  11  -1    1.55    1.20
  11  11  -1    0.03    1.68
 -11  11   1    2.30    1.36
   9 -11  -1   10.03    2.23
  -9 -11   1   13.92    3.49
   9 -11  -1   13.84    3.49
   9  11  -1    9.85    1.82
  -9  11   1   11.15    1.84
   9  11  -1   13.25    1.85
   7 -11  -1    9.82    5.17
  -7 -11   1   15.31    1.99
  -7 -11   1   12.45    3.01
   7 -11  -1   13.56    3.80
   7 -11  -1   16.22    2.72
  -7  11   1   16.16    2.01
   7  11  -1   13.27    1.73
  -7  11   1   12.40    1.94
  -7  11   1   20.92    2.69
   7  11  -1   13.25    1.98
   5 -11  -1    0.25    3.73
   5 -11  -1    1.29    2.33
   5 -11  -1   -3.39    1.58
  -5 -11   1    0.98    1.45
  -5 -11   1    1.48    1.75
   5  11  -1    1.00    1.20
   5  11  -1    1.60    0.80
  -5  11   1    0.71    0.82
  -5  11   1    0.58    1.15
  -5  11   1    0.77    0.77
  -3 -11   1    1.47    1.67
  -3 -11   1    1.72    1.41
   3 -11  -1    1.05    1.60
  -3  11   1    1.79    1.04
  -3  11   1    0.12    0.72
   3  11  -1    0.91    0.67
   3  11  -1   -0.43    0.80
  -3  11   1   -0.62    0.72
   3  11  -1   -0.13    0.69
   1 -11  -1    7.99    1.79
  -1 -11   1    4.23    1.97
  -1  11   1    8.56    1.17
   1  11  -1    4.07    1.08
   1  11  -1    9.89    1.19
   1  11  -1    8.41    1.11
  -1  11   1    7.76    1.17
  -1  11   1    7.01    1.30
   1 -11   1    0.72    1.94
  -1 -11  -1    1.65    1.21
  -1 -11  -1   -0.74    1.32
   1  11   1    0.99    0.80
  -1  11  -1   -1.06    0.81
  -1  11  -1   -1.12    0.67
   1  11   1   -0.94    0.64
  -1  11  -1    0.66    0.70
   1  11   1    0.07    0.79
  -3 -11  -1   97.19    8.13
  -3 -11  -1  107.03    7.56
   3 -11   1   92.14    8.39
  -3  11  -1  101.91    7.42
   3  11   1   97.64    7.53
   3  11   1   98.38    7.31
  -3  11  -1   98.58    7.48
  -3  11  -1   99.69    7.64
   3  11   1  100.81    7.66
  -5 -11  -1    0.84    1.44
   5 -11   1    0.43    1.38
   5 -11   1   -0.22    1.82
   5  11   1    0.77    0.91
   5  11   1    2.85    1.12
  -5  11  -1    0.96    0.86
  -5  11  -1    1.99    0.85
  -5  11  -1    1.45    1.31
   5  11   1    1.00    0.70
   7 -11   1   12.43    2.21
   7 -11   1   18.68    3.04
  -7 -11  -1   19.09    3.59
   7 -11   1   22.70    4.10
   7  11   1   18.30    1.74
   7  11   1   18.68    2.18
   7  11   1   18.87    2.33
  -7  11  -1   19.21    2.42
  -9 -11  -1   13.04    3.54
  -9 -11  -1   13.76    5.82
   9 -11   1   22.13    2.45
  -9 -11  -1   16.01    5.39
  -9  11  -1   16.30    2.41
   9  11   1   21.53    2.66
   9  11   1   15.10    2.21
 -11 -11  -1   -2.77    3.12
 -11 -11  -1    0.74    5.36
 -11 -11  -1    9.58    5.74
  11 -11   1   -1.75    1.47
  11  11   1    0.95    1.65
 -11  11  -1    0.55    1.39
  11  11   1    0.90    1.34
 -13 -11  -1   23.14    8.15
  13 -11   1   15.12    2.50
 -13 -11  -1   16.55    7.73
 -13 -11  -1   12.72    4.57
  13  11   1   11.58    2.52
  13  11   1   16.81    2.54
 -15 -11  -1   -0.92    8.24
 -15 -11  -1    3.57    8.10
 -15 -11  -1    2.02    5.03
  15 -11   1    0.54    2.26
  15  11   1    2.79    1.97
  15  11   1   -3.05    2.16
 -14 -12   1   14.91    8.50
  14 -12  -1    9.96    3.39
 -14 -12   1    0.92    4.64
 -14 -12   1   15.25    7.89
  14  12  -1   16.37    2.93
  14  12  -1   10.26    2.34
 -14  12   1   12.65    2.63
 -12 -12   1   21.51    4.82
  12 -12  -1   27.53    3.82
 -12  12   1   24.72    3.22
  12  12  -1   22.42    3.00
  12  12  -1   25.23    3.26
  10 -12  -1    8.26    2.47
 -10 -12   1    5.73    3.17
  10  12  -1    4.05    1.65
 -10  12   1    4.64    1.63
  10  12  -1    4.45    1.82
   8 -12  -1   23.61    4.04
   8 -12  -1   21.24    3.03
  -8 -12   1   20.07    4.16
   8 -12  -1   23.57    5.93
   8  12  -1   21.16    2.70
  -8  12   1   19.21    2.54
   8  12  -1   23.65    2.68
   6 -12  -1    1.78    1.90
  -6 -12   1    2.65    1.51
  -6 -12   1   -2.47    1.81
   6 -12  -1    2.35    3.00
   6 -12  -1    4.47    4.86
   6  12  -1    0.87    1.24
  -6  12   1    4.06    1.81
   6  12  -1    2.37    1.46
  -6  12   1    2.93    1.25
  -6  12   1    1.39    1.11
  -4 -12   1    1.78    2.08
  -4 -12   1    3.67    1.90
   4 -12  -1    5.66    2.15
  -4  12   1    5.35    1.35
   4  12  -1    1.99    0.94
   4  12  -1    3.04    1.41
  -4  12   1    2.96    1.47
  -4  12   1    3.64    1.23
   2 -12  -1   43.48    4.86
  -2 -12   1   43.41    5.04
  -2 -12   1   45.73    4.51
   2  12  -1   43.54    3.44
   2  12  -1   39.31    3.47
  -2  12   1   41.72    3.51
  -2  12   1   39.09    3.53
  -2  12   1   40.81    3.88
   0 -12   1  104.30    9.28
   0 -12  -1  105.71    8.64
   0 -12  -1  107.89    8.60
   0  12  -1  103.47    7.92
   0  12   1   99.60    7.92
   0  12  -1  110.92    7.96
   0  12  -1  121.37    8.24
   0  12   1  102.70    8.01
  -2 -12  -1    3.74    1.63
  -2 -12  -1    3.91    1.77
   2 -12   1    2.32    2.45
   2  12   1    6.79    1.72
  -2  12  -1    7.11    1.22
  -2  12  -1    4.78    1.03
   2  12   1    6.18    1.20
   2  12   1    6.83    1.18
  -2  12  -1    5.11    1.40
  -4 -12  -1   78.13    6.97
   4 -12   1   69.90    6.41
   4 -12   1   72.63    7.20
   4  12   1   79.43    6.29
  -4  12  -1   81.85    6.35
   4  12   1   76.69    5.80
  -4  12  -1   81.26    5.97
   4  12   1   76.75    6.09
   6 -12   1   47.17    6.85
  -6 -12  -1   40.52    5.21
   6 -12   1   46.15    5.64
   6 -12   1   41.09    5.31
   6 -12   1   35.86    4.13
  -6  12  -1   43.19    3.91
   6  12   1   36.97    3.94
  -6  12  -1   41.14    5.00
   6  12   1   46.73    3.41
  -8 -12  -1    4.84    3.21
   8 -12   1    8.47    1.95
   8 -12   1    9.40    3.05
  -8  12  -1    7.56    1.83
   8  12   1   11.09    1.99
   8  12   1   10.59    2.04
  10 -12   1    4.65    3.07
 -10 -12  -1   -0.89    3.11
  10 -12   1    6.45    1.89
 -10 -12  -1   13.99    6.05
 -10 -12  -1   -1.48    5.06
  10  12   1    7.21    2.00
  10  12   1    5.76    1.66
 -10  12  -1    6.23    1.84
 -12 -12  -1   11.58    7.01
 -12 -12  -1   11.37    4.46
  12 -12   1   10.81    2.03
 -12 -12  -1   -1.80    6.67
  12  12   1    8.23    2.35
  12  12   1    6.56    2.02
 -14 -12  -1   16.53    8.89
 -14 -12  -1   31.37    6.34
 -14 -12  -1   32.72    9.55
  14  12   1   26.16    3.57
  14  12   1   33.91    4.12
 -13 -13   1   31.39    9.10
 -13 -13   1   45.84   10.83
  13 -13  -1   45.71    6.07
 -13  13   1   41.95    4.81
  13  13  -1   41.23    4.72
  13  13  -1   45.89    5.22
 -11 -13   1   27.72    5.65
  11 -13  -1   49.40    5.65
  11  13  -1   32.91    4.00
 -11  13   1   33.21    3.95
  11  13  -1   33.21    3.84
   9 -13  -1    5.12    2.51
  -9 -13   1   10.02    3.55
  -9  13   1    3.41    1.73
   9  13  -1    7.58    1.90
   9  13  -1    7.05    1.96
   7 -13  -1   84.98   12.35
   7 -13  -1  110.36    8.46
   7 -13  -1  103.47    9.61
  -7 -13   1   81.63    8.99
   7 -13  -1   79.90    9.82
   7 -13  -1  118.79    9.53
   7 -13  -1   96.55    9.06
   7  13  -1  105.77    7.60
  -7  13   1   92.36    7.53
  -7  13   1   92.17    7.58
  -7  13   1   96.43    8.49
   7  13  -1   90.94    7.73
   5 -13  -1   81.55    7.61
  -5 -13   1   81.69    7.03
   5 -13  -1   86.37    7.86
  -5 -13   1   81.62    8.01
   5 -13  -1   84.78    8.85
   5 -13  -1   84.85   11.21
  -5  13   1   85.21    6.74
  -5  13   1   83.31    7.37
   5  13  -1   80.22    6.52
   5  13  -1   93.18    6.99
  -5  13   1   85.66    6.71
   3 -13  -1   -0.15    2.44
  -3 -13   1    4.81    2.39
  -3 -13   1    1.90    2.06
  -3  13   1    0.72    1.21
   3  13  -1    0.56    1.23
  -3  13   1   -0.98    1.22
   3  13  -1    1.47    1.03
  -3  13   1    1.46    1.86
   1 -13  -1    5.81    2.79
  -1 -13   1    3.74    2.99
  -1 -13   1    5.12    2.39
   1 -13  -1    5.55    1.74
   1  13  -1    2.84    1.06
  -1  13   1    1.38    1.60
  -1  13   1    3.76    1.07
   1  13  -1    2.20    1.51
  -1  13   1    2.44    1.82
  -1 -13  -1   58.93    5.27
  -1 -13  -1   51.86    5.53
   1 -13   1   52.24    6.54
  -1  13  -1   45.02    4.78
  -1  13  -1   48.56    4.24
   1  13   1   43.75    5.03
  -1  13  -1   55.12    4.37
   1  13   1   63.87    4.95
  -3 -13  -1   93.63    8.07
   3 -13   1   93.43    7.52
  -3 -13  -1   89.76    6.84
   3 -13   1   82.91    8.48
   3  13   1   95.48    7.37
   3  13   1   81.62    6.72
  -3  13  -1  100.93    6.90
   3  13   1   83.06    7.65
  -3  13  -1   91.02    7.06
  -3  13  -1   81.95    7.39
   5 -13   1    3.66    2.79
  -5 -13  -1    3.01    2.72
   5 -13   1    6.16    2.13
   5  13   1    8.44    1.86
   5  13   1    6.97    1.69
  -5  13  -1   10.58    1.60
   5  13   1    8.72    1.29
  -5  13  -1    7.16    1.77
   7 -13   1    2.44    1.79
  -7 -13  -1    2.80    2.84
   7 -13   1    3.50    2.82
   7  13   1   -2.05    1.43
  -7  13  -1    2.20    1.40
   7  13   1   -1.24    1.31
  -7  13  -1    0.67    2.08
  -9 -13  -1   58.95    7.08
  -9 -13  -1   49.51    9.80
  -9 -13  -1   55.42    9.99
   9 -13   1   48.80    6.53
   9  13   1   56.40    5.39
   9  13   1   56.10    5.27
  -9  13  -1   64.55    5.31
 -11 -13  -1   66.77    8.87
 -11 -13  -1   53.17   10.37
 -11 -13  -1   71.77   11.38
  11  13   1   67.11    6.05
  11  13   1   69.24    6.24
 -13 -13  -1   10.66    5.06
 -13 -13  -1    3.67    8.09
  13 -13   1   22.46    5.53
 -13 -13  -1   11.93    8.26
  13  13   1   11.09    2.61
  13  13   1   14.06    3.00
 -12 -14   1   24.39    8.89
 -12 -14   1   12.78    5.05
 -12 -14   1   10.62    8.63
  12  14  -1   16.98    2.96
 -12  14   1   18.17    3.05
  12  14  -1   21.86    3.30
  10 -14  -1   61.28    7.50
  10 -14  -1   71.76    7.07
 -10 -14   1   55.88    7.79
  10  14  -1   53.10    5.48
 -10  14   1   53.28    5.50
  10  14  -1   58.28    5.60
   8 -14  -1   96.77   10.10
   8 -14  -1   88.82    9.53
  -8 -14   1  103.84    9.97
   8  14  -1  108.66    8.37
   8  14  -1  105.37    8.09
  -8  14   1   96.15    8.12
   6 -14  -1   19.44    5.25
   6 -14  -1   29.90    5.61
  -6 -14   1   27.76    4.55
   6 -14  -1   22.42    4.47
   6 -14  -1   39.74    8.09
   6 -14  -1   35.18    6.00
   6 -14  -1   21.14    3.73
  -6  14   1   29.26    3.18
  -6  14   1   26.08    3.25
   6  14  -1   28.81    3.56
   6  14  -1   27.43    3.04
  -6  14   1   26.66    4.03
  -4 -14   1   59.90    6.52
  -4 -14   1   59.58    5.84
   4 -14  -1   47.91    6.26
   4 -14  -1   64.21    6.47
  -4  14   1   62.57    5.06
  -4  14   1   55.53    4.99
   4  14  -1   55.92    4.88
  -4  14   1   56.13    5.82
   4  14  -1   58.18    5.35
   2 -14  -1  201.79   15.38
  -2 -14   1  194.77   15.37
   2 -14  -1  190.93   15.11
  -2 -14   1  189.75   15.00
  -2  14   1  185.01   14.40
   2  14  -1  174.88   13.77
   2  14  -1  166.01   14.15
  -2  14   1  191.89   13.93
  -2  14   1  214.83   14.00
   0 -14  -1   89.44    7.71
   0 -14   1   74.94    9.06
   0 -14  -1   65.74    9.34
   0  14  -1   81.43    6.43
   0  14  -1   86.76    6.98
   0  14   1   78.51    6.97
   0  14  -1   83.68    6.48
   0  14   1   84.58    6.60
  -2 -14  -1    1.27    2.18
   2 -14   1   -4.81    3.06
   2  14   1    1.23    1.34
  -2  14  -1   -1.86    1.68
  -2  14  -1    1.31    1.42
   2  14   1    0.91    1.12
   2  14   1   -1.86    1.39
  -2  14  -1    2.43    1.51
   4 -14   1   41.42    4.02
  -4 -14  -1   27.30    4.33
   4 -14   1   30.89    4.87
  -4  14  -1   25.60    3.65
  -4  14  -1   27.07    3.18
   4  14   1   30.75    3.69
  -4  14  -1   25.35    3.18
   4  14   1   28.40    3.44
   4  14   1   30.84    2.95
  -6 -14  -1   42.47    6.13
   6 -14   1   39.86    5.78
   6 -14   1   47.43    8.30
  -6  14  -1   47.85    5.24
   6  14   1   41.35    4.60
  -6  14  -1   45.67    4.42
   6  14   1   54.56    4.65
  -8 -14  -1   79.00    8.27
  -8 -14  -1   66.21   10.71
   8 -14   1   68.17    8.36
  -8 -14  -1   82.26   12.15
   8  14   1   74.97    6.32
   8  14   1   63.52    6.22
  -8  14  -1   68.69    6.21
 -10 -14  -1   44.22    9.73
  10 -14   1   31.25    7.45
 -10 -14  -1   39.50    6.64
 -10 -14  -1   55.39   10.67
  10  14   1   53.66    5.15
  10  14   1   48.76    4.93
 -12 -14  -1   12.65    8.22
  12 -14   1   11.77    5.41
 -12 -14  -1    0.18    7.67
 -12 -14  -1    1.94    4.68
  12  14   1    3.38    2.76
  12  14   1    8.79    2.30
 -11 -15   1   27.91    9.26
 -11 -15   1   35.64   10.50
  11  15  -1   43.99    4.94
  -9 -15   1   13.60    4.42
   9 -15  -1   24.29    6.22
   9  15  -1   22.58    3.06
  -9  15   1   21.66    3.17
   9  15  -1   20.79    3.15
  -7 -15   1  116.06   10.40
   7 -15  -1  112.17   10.42
   7 -15  -1  104.97   10.87
   7  15  -1  103.38    8.35
   7  15  -1  100.68    8.63
  -7  15   1   98.43    8.23
  -7  15   1  100.04    8.38
  -5 -15   1   90.88    8.76
   5 -15  -1   79.60   10.77
   5 -15  -1   90.05   10.14
   5 -15  -1   93.87   11.51
   5 -15  -1   85.80    8.31
   5 -15  -1   81.98    9.55
   5 -15  -1   80.16   13.04
  -5  15   1   90.03    7.02
  -5  15   1   88.07    8.11
   5  15  -1   78.55    6.92
   5  15  -1   68.72    7.23
  -5  15   1   99.25    7.15
   3 -15  -1   33.83    5.82
  -3 -15   1   49.80    5.90
   3 -15  -1   41.13    5.58
  -3  15   1   46.72    4.12
   3  15  -1   43.22    4.14
   3  15  -1   28.88    4.10
  -3  15   1   39.18    5.03
  -3  15   1   45.72    4.17
  -1 -15   1   21.95    3.99
  -1 -15   1   28.41    5.29
   1 -15  -1   27.26    4.07
   1 -15  -1   25.72    5.02
  -1  15   1   22.53    2.85
  -1  15   1   20.79    2.76
   1  15  -1   26.88    2.86
   1  15  -1   25.38    3.29
  -1  15   1   18.99    3.18
  -1 -15  -1   59.07    6.58
   1 -15   1   56.29    7.28
   1  15   1   53.04    5.08
  -1  15  -1   59.65    4.98
  -1  15  -1   54.92    5.60
  -1  15  -1   54.28    5.06
   1  15   1   59.37    5.11
   1  15   1   63.99    5.67
   3 -15   1   73.79    8.83
  -3 -15  -1   62.76    7.28
  -3  15  -1   61.90    5.77
  -3  15  -1   78.20    6.70
  -3  15  -1   60.21    5.58
   3  15   1   64.27    6.17
   3  15   1   67.59    5.80
   3  15   1   74.04    5.55
   5 -15   1   94.63   10.61
   5 -15   1  114.58   13.82
  -5 -15  -1   91.96    9.41
  -5  15  -1  106.62    8.96
  -5  15  -1  104.12    8.01
   5  15   1   93.32    8.26
   5  15   1   90.40    7.95
  -7 -15  -1    0.83    6.06
  -7 -15  -1   10.39    6.93
   7 -15   1    3.29    4.26
  -7 -15  -1    4.96    3.83
   7  15   1    3.59    2.03
   7  15   1    3.97    2.06
  -9 -15  -1   98.98   13.33
   9 -15   1   90.57   10.96
  -9 -15  -1   62.17   11.99
   9  15   1   96.20    7.97
   9  15   1   95.74    8.02
  -8 -16   1   10.37    4.49
  -8  16   1   16.45    2.97
   8  16  -1   14.83    2.97
   8  16  -1   14.48    2.93
   6 -16  -1   21.03    8.15
   6 -16  -1   12.43    5.31
  -6 -16   1    5.66    3.96
  -6  16   1   20.02    4.18
  -6  16   1   13.96    2.61
   6  16  -1   13.10    2.84
   6  16  -1   12.04    2.45
  -6  16   1   13.31    2.53
   4 -16  -1   10.20    6.99
   4 -16  -1    6.92    4.47
   4 -16  -1   -6.91    9.39
   4 -16  -1    8.54    3.47
   4 -16  -1   13.81    6.68
   4 -16  -1   16.39    5.28
   4 -16  -1    7.71    7.13
  -4 -16   1    7.47    3.60
   4  16  -1   11.15    2.27
  -4  16   1    9.62    2.24
  -4  16   1    5.95    2.94
  -4  16   1   10.37    2.18
   4  16  -1   11.67    2.67
   2 -16  -1  218.96   18.26
   2 -16  -1  179.52   15.18
   2 -16  -1  202.18   18.57
  -2 -16   1  170.74   15.42
   2  16  -1  200.71   14.07
  -2  16   1  198.98   14.88
  -2  16   1  181.63   14.10
  -2  16   1  176.69   14.11
   2  16  -1  196.98   14.66
   0 -16   1   77.59    8.80
   0 -16  -1   88.48    8.87
   0  16   1   85.80    7.40
   0  16   1   87.22    8.07
   0  16   1   96.36    7.44
   0  16  -1   93.25    7.28
   0  16  -1  100.40    8.07
  -2 -16  -1    2.33    6.06
  -2 -16  -1   -0.03    3.09
   2 -16   1   -2.72    5.12
  -2  16  -1    1.99    1.70
   2  16   1   -0.03    1.73
  -2  16  -1    0.19    2.54
   2  16   1   -0.16    1.99
   2  16   1    0.97    2.01
  -4 -16  -1   19.01    7.31
   4 -16   1   27.33    6.00
  -4 -16  -1   23.31    4.79
  -4 -16  -1   24.23    8.22
   4  16   1   19.17    2.92
   4  16   1   22.76    3.52
  -4  16  -1   26.16    2.92
  -4  16  -1   20.08    4.07
  -6 -16  -1  120.31   15.28
  -6 -16  -1  117.51   15.22
  -6 -16  -1  109.88   11.34
   6 -16   1  135.30   13.08
  -6  16  -1  131.15   10.77
   6  16   1  127.88    9.55
   6  16   1   94.49    9.68
   8 -16   1   67.13    9.23
  -8 -16  -1   70.70   12.60
  -8 -16  -1   91.54   13.51
   8  16   1   73.46    7.01
   8  16   1   74.28    6.94
   5 -17  -1   68.90   11.68
  -5 -17   1   59.16    8.59
   5 -17  -1   61.22    8.34
   5  17  -1   63.94    6.88
  -5  17   1   70.88    6.17
   5  17  -1   66.42    6.21
  -5  17   1   67.18    6.36
  -5  17   1   67.45    8.44
   3 -17  -1    5.97    3.86
   3 -17  -1    4.40   11.53
   3 -17  -1   10.36    7.90
   3 -17  -1    6.49    6.88
  -3 -17   1    4.65    3.95
   3 -17  -1    0.41    7.94
  -3  17   1    2.09    3.41
  -3  17   1    3.63    2.14
   3  17  -1    3.17    2.72
   3  17  -1    5.84    2.33
  -3  17   1    8.98    2.41
   1 -17  -1   -3.76    3.58
   1 -17  -1   -0.67    7.62
   1 -17  -1   -8.87    7.00
  -1 -17   1    0.00    3.48
   1  17  -1    3.23    2.81
  -1  17   1    0.55    2.02
   1  17  -1    0.85    1.91
  -1  17   1    3.50    3.08
  -1  17   1    3.48    2.34
  -1 -17  -1   54.82   10.41
  -1 -17  -1   45.92    9.60
   1 -17   1   31.07    5.82
  -1 -17  -1   44.37    6.06
   1  17   1   41.40    4.76
  -1  17  -1   42.43    5.15
   1  17   1   43.42    5.10
   1  17   1   37.83    4.70
  -1  17  -1   43.41    4.55
  -3 -17  -1   75.18   13.02
  -3 -17  -1   86.70    9.70
  -3 -17  -1   98.21   13.43
   3 -17   1   78.16    9.32
  -3  17  -1   86.89    7.35
   3  17   1  103.60    8.35
  -3  17  -1   92.37    8.97
   3  17   1   85.89    7.58
  -5 -17  -1   34.38    6.27
   5 -17   1   35.79    7.98
  -5 -17  -1   41.11   10.23
  -5 -17  -1   35.86   10.06
  -5  17  -1   54.49    6.28
   5  17   1   49.52    5.53
   5  17   1   47.03    5.08
  20   0  -2  112.48    9.47
 -20   0   2   99.55   13.36
  20   0  -2  118.56    9.26
 -18   0   2  107.36   14.09
 -18   0   2  112.27   11.98
  18   0  -2  114.64    9.24
 -16   0   2   34.27    7.72
  16   0  -2   34.52    3.73
 -16   0   2   31.99    7.12
 -16   0   2   18.98    5.08
 -14   0   2   82.40    7.67
 -14   0   2   80.68    9.11
 -14   0   2   77.41    8.50
  14   0  -2   78.92    6.62
 -12   0   2  522.48   38.10
 -12   0   2  557.63   38.28
 -12   0   2  517.46   37.11
  12   0  -2  511.91   37.49
 -10   0   2  135.99    9.59
 -10   0   2  141.29   10.58
 -10   0   2  123.43   10.36
  10   0  -2  129.79    9.95
 -10   0   2  138.82   10.46
  10   0  -2  131.76   10.09
   8   0  -2   12.06    1.70
  -8   0   2   15.52    1.28
  -8   0   2   18.43    2.35
   8   0  -2   16.14    2.17
   8   0  -2   12.88    1.87
  -6   0   2   51.63    6.19
  -6   0   2   62.46    4.50
  -6   0   2   63.62    4.96
   6   0  -2   68.71    5.09
   6   0  -2   61.67    4.83
   6   0  -2   58.11    5.01
   6   0  -2   66.36    5.37
   4   0  -2  571.28   41.05
   4   0  -2  566.70   40.72
  -4   0   2  551.17   40.25
   4   0  -2  592.76   40.57
   4   0  -2  588.56   40.51
  -4   0   2  577.35   40.55
   2   0  -2  581.20   39.00
   2   0  -2  602.64   39.43
   2   0  -2  562.00   38.83
   2   0  -2  542.31   39.25
   2   0  -2  573.39   38.75
  -2   0   2  625.99   39.51
  -2   0   2  559.94   38.99
  -2   0   2  482.88   39.50
   2   0  -2  509.12   39.55
  -2   0   2  534.51   38.81
   2   0  -2  531.68   38.95
  -2   0   2  539.58   38.74
   0   0   2   14.62    2.79
   0   0  -2    9.95    1.86
   0   0  -2   10.24    1.48
   0   0   2   10.35    1.09
   0   0  -2    9.81    2.27
   0   0   2    9.20    0.77
   0   0   2   11.24    1.31
   0   0  -2    9.28    1.08
   0   0   2   14.20    2.46
   0   0  -2   11.72    2.35
   0   0  -2    8.38    0.82
   0   0   2   10.25    1.48
   0   0   2   12.13    2.00
   2   0   2    9.63    0.83
   2   0   2    9.45    0.99
  -2   0  -2    9.89    0.86
  -2   0  -2    9.44    2.19
   2   0   2   17.82    2.77
  -2   0  -2    4.92    2.23
  -2   0  -2   10.54    0.78
  -2   0  -2    9.66    1.36
   2   0   2   10.33    0.77
  -4   0  -2  360.43   27.79
  -4   0  -2  401.30   27.95
   4   0   2  430.93   27.78
   4   0   2  355.03   26.59
  -4   0  -2  386.47   27.15
   4   0   2  354.35   26.66
  -6   0  -2  585.36   42.80
   6   0   2  543.58   42.19
  -6   0  -2  653.59   43.73
   6   0   2  633.73   42.12
  -6   0  -2  592.79   43.54
   8   0   2   38.43    3.04
  -8   0  -2   41.61    5.31
  -8   0  -2   44.82    4.11
   8   0   2   40.13    3.19
  -8   0  -2   41.74    5.49
 -10   0  -2   15.29    4.34
 -10   0  -2   11.30    3.72
  10   0   2   12.87    1.47
 -10   0  -2   13.80    2.65
  10   0   2   12.19    1.27
 -12   0  -2  207.99   17.80
 -12   0  -2  208.37   19.29
  12   0   2  232.99   16.71
 -12   0  -2  238.02   19.73
  12   0   2  254.68   16.54
  14   0   2  289.45   18.42
 -14   0  -2  252.41   20.32
 -14   0  -2  234.08   21.86
 -14   0  -2  232.54   21.93
  14   0   2  250.15   18.62
 -16   0  -2   -0.82    3.43
  16   0   2    1.14    0.97
 -16   0  -2    2.05    7.62
  16   0   2    3.95    1.50
 -16   0  -2    2.78    7.28
  18   0   2   21.86    3.00
  18   0   2   25.00    2.91
 -18   0  -2   23.15    6.51
 -18   0  -2   15.60   12.72
 -20   0  -2   18.66   18.01
  20   0   2   14.36    2.59
  20   0   2   20.24    3.09
 -20   0  -2   14.21    6.82
 -19  -1   2    1.87   10.71
 -19  -1   2    1.93    5.28
  19  -1  -2    2.30    2.06
 -19   1   2   -4.08    5.48
  19   1  -2    5.15    1.96
  19   1  -2    0.91    1.93
 -17  -1   2   32.64    7.95
 -17  -1   2   42.76    8.90
  17  -1  -2   41.15    4.26
 -17  -1   2   40.48    6.69
  17   1  -2   35.70    4.16
 -17   1   2   39.59    9.06
 -17   1   2   34.93    6.35
  15  -1  -2  190.54   14.36
 -15  -1   2  175.61   15.53
 -15  -1   2  186.74   16.63
 -15  -1   2  189.97   16.20
 -15   1   2  210.75   16.79
  15   1  -2  196.63   14.33
 -15   1   2  190.62   17.15
 -15   1   2  189.22   18.54
 -13  -1   2  157.82   12.74
 -13  -1   2  155.76   13.10
 -13  -1   2  157.12   14.15
  13  -1  -2  155.80   11.87
  13   1  -2  169.47   11.92
 -13   1   2  154.22   13.08
 -13   1   2  160.93   13.55
 -13   1   2  158.62   12.80
 -13   1   2  156.00   11.50
  11  -1  -2   28.96    3.15
  11  -1  -2   33.96    3.16
 -11  -1   2   33.07    3.84
 -11  -1   2   31.91    2.59
 -11  -1   2   32.63    4.40
 -11  -1   2   31.30    4.14
 -11   1   2   32.88    3.83
  11   1  -2   32.21    2.96
 -11   1   2   34.00    4.77
 -11   1   2   33.49    2.66
 -11   1   2   34.00    4.15
   9  -1  -2  313.06   20.44
   9  -1  -2  275.21   19.99
  -9  -1   2  274.77   19.49
   9  -1  -2  270.02   19.92
  -9  -1   2  271.82   20.23
  -9   1   2  287.58   19.57
   9   1  -2  281.38   20.06
  -9   1   2  251.07   20.04
  -9   1   2  266.34   20.16
   9   1  -2  270.59   19.85
  -9   1   2  277.29   20.06
  -7  -1   2  369.82   25.19
   7  -1  -2  339.85   25.56
   7  -1  -2  347.27   25.70
   7  -1  -2  353.76   26.03
  -7  -1   2  357.11   25.72
   7  -1  -2  372.70   25.78
  -7   1   2  369.66   25.70
   7   1  -2  359.01   25.50
   7   1  -2  359.06   25.71
  -7   1   2  357.85   25.25
   7   1  -2  357.30   25.73
  -5  -1   2  108.46    7.37
   5  -1  -2   93.04    8.25
   5  -1  -2  100.99    7.73
  -5  -1   2  106.99    7.78
   5  -1  -2  102.51    7.96
  -5  -1   2  102.68    8.67
   5  -1  -2  105.86    7.80
  -5  -1   2  103.36    7.73
   5   1  -2  104.68    7.81
   5   1  -2  116.42    8.26
  -5   1   2  108.00    7.44
   5   1  -2  114.82    7.67
  -5   1   2   98.34    7.69
  -5   1   2   81.63    8.71
   5   1  -2  105.75    7.91
   3  -1  -2   59.15    6.14
  -3  -1   2   63.53    5.99
   3  -1  -2   74.39    5.50
   3  -1  -2   78.53    5.62
  -3  -1   2   76.00    5.18
  -3  -1   2   69.73    5.47
   3  -1  -2   69.77    5.21
   3  -1  -2   75.02    5.45
  -3   1   2   63.03    6.28
  -3   1   2   76.09    5.20
  -3   1   2   71.51    5.22
  -3   1   2   73.54    5.43
   3   1  -2   77.48    5.52
  -3   1   2   79.21    6.02
   3   1  -2   70.76    5.88
   3   1  -2   81.18    5.69
  -3   1   2   67.80    5.85
  -1  -1   2   57.24    4.47
   1  -1  -2   57.37    4.73
  -1  -1   2   50.75    3.98
   1  -1  -2   58.12    4.36
   1  -1  -2   44.36    4.52
   1  -1  -2   47.18    4.77
  -1  -1   2   48.66    4.60
   1  -1  -2   51.30    3.86
  -1  -1   2   50.42    3.79
  -1  -1   2   43.01    4.34
  -1  -1   2   55.43    3.62
  -1   1   2   49.12    4.87
  -1   1   2   52.85    3.79
  -1   1   2   51.45    3.77
   1   1  -2   52.52    3.63
  -1   1   2   42.73    4.59
   1   1  -2   50.74    3.99
   1   1  -2   55.98    4.17
   1   1  -2   50.51    4.39
   1   1  -2   57.13    4.71
  -1   1   2   46.43    3.83
  -1   1   2   50.67    3.71
  -1   1   2   62.18    4.66
   1  -1   2  395.71   30.07
   1  -1   2  438.47   30.73
   1  -1   2  407.34   29.63
  -1  -1  -2  399.00   30.22
   1  -1   2  437.05   29.81
  -1  -1  -2  444.33   29.45
   1   1   2  424.36   29.56
  -1   1  -2  403.60   29.79
   1   1   2  384.67   29.45
   1   1   2  458.78   29.62
  -1   1  -2  447.63   30.76
  -1   1  -2  438.75   29.62
   1   1   2  408.77   29.46
  -1   1  -2  400.36   29.40
   3  -1   2  617.39   48.12
   3  -1   2  767.27   49.59
  -3  -1  -2  686.12   49.10
  -3  -1  -2  717.11   49.11
  -3  -1  -2  661.80   48.44
   3   1   2  614.96   48.16
   3   1   2  779.46   49.05
  -3   1  -2  765.06   48.35
  -3   1  -2  747.44   49.77
  -3   1  -2  687.94   49.58
  -3   1  -2  687.29   48.73
   3   1   2  604.28   48.11
  -3   1  -2  634.18   48.14
  -5  -1  -2   -1.66    1.42
  -5  -1  -2    1.52    1.41
  -5  -1  -2   -0.31    0.89
   5  -1   2   -1.28    2.36
   5  -1   2    0.14    0.29
  -5   1  -2   -0.41    2.11
  -5   1  -2    2.53    2.13
  -5   1  -2    0.34    0.96
   5   1   2    0.92    0.27
   5   1   2    0.28    0.34
   7  -1   2  450.36   28.88
  -7  -1  -2  414.54   29.48
  -7  -1  -2  408.52   30.23
  -7  -1  -2  404.17   30.27
  -7   1  -2  423.53   30.61
   7   1   2  417.40   28.77
  -7   1  -2  339.20   30.33
   7   1   2  403.32   28.87
  -9  -1  -2  323.14   26.21
  -9  -1  -2  340.54   26.39
   9  -1   2  332.40   24.58
  -9  -1  -2  337.50   25.38
   9   1   2  377.51   24.50
  -9   1  -2  354.38   26.67
  -9   1  -2  343.96   25.55
  -9   1  -2  345.65   25.78
   9   1   2  359.25   24.63
  -9   1  -2  342.82   26.72
  11  -1   2   98.96    7.60
 -11  -1  -2   98.49   10.18
 -11  -1  -2  101.85    8.77
 -11  -1  -2   87.95   10.16
  11   1   2  101.41    7.64
 -11   1  -2   83.53   10.43
 -11   1  -2  122.06   11.02
 -11   1  -2  104.42    8.82
  11   1   2  109.95    7.49
 -13  -1  -2    5.97    2.82
 -13  -1  -2    9.23    4.24
  13  -1   2    8.67    1.33
 -13  -1  -2    8.30    4.69
  13  -1   2    8.71    1.12
  13   1   2    7.60    1.15
 -13   1  -2    5.39    2.64
 -13   1  -2   15.61    5.84
  13   1   2    6.08    1.17
 -13   1  -2   -0.76    4.70
  15  -1   2   63.11    5.07
 -15  -1  -2   56.64    9.85
 -15  -1  -2   58.88    7.45
  15  -1   2   59.04    4.63
 -15  -1  -2   52.62    9.72
  15   1   2   56.93    5.07
  15   1   2   59.13    4.67
 -15   1  -2   41.86   13.97
 -15   1  -2   59.55   10.74
 -15   1  -2   57.76    7.59
  17  -1   2   93.66    6.88
  17  -1   2   79.94    7.22
 -17  -1  -2   80.45    9.92
 -17  -1  -2  105.57   15.18
 -17   1  -2   98.62   14.80
  17   1   2   94.62    7.04
 -17   1  -2   90.75   10.85
  17   1   2   92.35    7.41
 -17   1  -2   70.63   14.26
 -19  -1  -2   39.03   14.86
 -19  -1  -2   64.52   16.86
  19  -1   2   48.93    4.91
  19  -1   2   54.76    4.49
 -19  -1  -2   59.77    8.87
  19   1   2   43.06    4.52
 -19   1  -2   41.00   17.36
  19   1   2   41.46    4.80
 -19   1  -2   38.42    8.43
 -20  -2   2  113.16   14.06
  20  -2  -2  142.65   11.14
 -20  -2   2  179.89   21.42
 -20   2   2  116.07   15.75
  20   2  -2  141.82   10.76
  20   2  -2  134.36   11.03
  18  -2  -2   67.13    6.52
 -18  -2   2   67.84    9.22
 -18  -2   2   62.28   12.26
 -18  -2   2   89.94   12.74
 -18   2   2   68.96    9.51
  18   2  -2   72.46    6.48
  18   2  -2   75.06    6.24
  16  -2  -2    2.23    1.69
 -16  -2   2   -0.30    4.32
 -16  -2   2    5.83    5.63
 -16  -2   2   -2.54    3.51
 -16   2   2    0.45    3.77
 -16   2   2   17.63    7.19
  16   2  -2    1.20    1.47
 -14  -2   2   88.78    9.86
  14  -2  -2   85.27    7.04
 -14  -2   2   83.61    8.64
 -14   2   2   85.96    8.19
 -14   2   2   84.11    6.48
 -14   2   2   95.19   10.04
  14   2  -2   85.66    6.91
 -14   2   2   70.67    9.21
  12  -2  -2   62.40    5.20
 -12  -2   2   67.43    6.52
  12  -2  -2   62.94    5.23
 -12  -2   2   62.74    6.64
 -12  -2   2   60.46    5.99
 -12   2   2   58.00    6.71
 -12   2   2   64.06    6.19
  12   2  -2   59.21    5.05
 -12   2   2   60.94    4.75
 -12   2   2   61.87    7.61
  10  -2  -2  140.91    9.65
 -10  -2   2  117.45    9.62
  10  -2  -2  121.23    9.19
  10  -2  -2  116.14    9.18
  10   2  -2  120.49    9.06
 -10   2   2  125.45    9.70
 -10   2   2  116.51    9.56
 -10   2   2  117.43    8.78
 -10   2   2  113.79    9.66
  -8  -2   2  154.26   11.70
   8  -2  -2  148.19   11.55
   8  -2  -2  150.30   11.49
   8  -2  -2  162.25   11.94
  -8  -2   2  159.54   11.00
  -8   2   2  161.23   11.41
   8   2  -2  155.44   11.33
  -8   2   2  156.23   11.43
  -8   2   2  152.00   11.70
   8   2  -2  147.63   11.58
  -8   2   2  160.64   11.13
   8   2  -2  154.32   11.78
   6  -2  -2  116.82    9.24
   6  -2  -2  126.74    9.35
   6  -2  -2  114.69    9.80
  -6  -2   2  131.72    9.34
  -6  -2   2  123.53    9.24
  -6  -2   2  135.57    8.78
   6  -2  -2  125.62    9.47
  -6   2   2  121.80    9.29
   6   2  -2  131.06    9.38
   6   2  -2  127.32    8.85
   6   2  -2  127.13    9.39
  -6   2   2  122.32    8.90
   6   2  -2  114.96    9.04
  -6   2   2  120.43    9.05
  -4  -2   2  486.89   33.48
   4  -2  -2  491.49   33.86
  -4  -2   2  467.15   34.43
  -4  -2   2  490.48   33.84
   4  -2  -2  444.59   33.65
   4  -2  -2  452.96   33.90
   4  -2  -2  411.30   34.59
  -4  -2   2  492.15   33.89
   4  -2  -2  449.06   34.19
   4   2  -2  501.80   33.99
  -4   2   2  478.47   33.57
   4   2  -2  507.72   33.70
  -4   2   2  474.46   33.60
  -4   2   2  469.40   33.75
  -4   2   2  422.51   34.73
   4   2  -2  502.70   33.92
   4   2  -2  548.49   34.33
  -4   2   2  510.87   33.62
   2  -2  -2  921.04   62.59
   2  -2  -2 1000.00   62.98
  -2  -2   2  847.42   62.47
  -2  -2   2  907.67   63.09
  -2  -2   2  846.42   62.71
   2  -2  -2  868.19   63.58
  -2   2   2  838.53   62.43
  -2   2   2  857.85   62.65
   2   2  -2  911.05   62.76
  -2   2   2  788.97   62.49
  -2   2   2  969.77   62.69
   2   2  -2  883.06   62.72
   2   2  -2  955.68   63.00
   0  -2   2   22.38    1.69
   0  -2  -2   25.29    2.58
   0  -2   2   22.39    2.06
   0  -2   2   20.51    2.41
   0  -2  -2   23.92    1.87
   0  -2  -2   18.81    2.45
   0  -2   2   26.59    3.25
   0   2   2   21.77    1.90
   0   2   2   24.06    1.86
   0   2  -2   27.36    2.35
   0   2  -2   28.37    2.15
   0   2   2   23.20    2.44
   0   2  -2   27.95    2.11
   0   2  -2   23.05    3.09
   2  -2   2  623.22   43.79
   2  -2   2  644.46   43.80
   2  -2   2  557.45   43.98
   2  -2   2  643.38   45.04
  -2  -2  -2  722.91   44.45
  -2  -2  -2  692.46   44.43
  -2  -2  -2  554.74   43.80
   2  -2   2  579.38   43.48
   2   2   2  538.22   43.55
   2   2   2  640.51   43.61
  -2   2  -2  621.04   43.72
  -2   2  -2  624.83   43.88
  -2   2  -2  641.26   45.05
   2   2   2  598.84   43.57
  -2   2  -2  672.06   44.98
   4  -2   2  217.08   15.64
   4  -2   2  203.93   13.55
   4  -2   2  203.71   13.68
  -4  -2  -2  214.42   14.09
  -4  -2  -2  190.64   14.60
  -4  -2  -2  193.80   14.65
  -4   2  -2  183.36   15.41
  -4   2  -2  182.70   15.48
   4   2   2  192.40   13.63
  -4   2  -2  164.36   13.88
   4   2   2  189.39   13.69
  -4   2  -2  205.02   14.54
  -4   2  -2  174.51   13.74
  -6  -2  -2  194.00   14.41
   6  -2   2  208.58   13.87
   6  -2   2  220.94   15.63
  -6  -2  -2  189.15   15.10
   6   2   2  182.12   13.81
  -6   2  -2  209.06   14.88
   6   2   2  183.75   13.90
  -6   2  -2  193.65   13.80
  -6   2  -2  182.23   15.86
  -6   2  -2  192.56   16.03
  -8  -2  -2   39.94    5.15
   8  -2   2   38.19    3.31
  -8  -2  -2   43.45    4.23
  -8  -2  -2   43.73    5.10
  -8   2  -2   37.15    6.40
   8   2   2   40.76    3.39
  -8   2  -2   39.85    4.42
  -8   2  -2   44.62    6.19
  -8   2  -2   48.89    3.83
   8   2   2   45.73    3.27
  10  -2   2    1.16    0.63
 -10  -2  -2    1.93    1.81
 -10  -2  -2    5.60    2.94
 -10  -2  -2    0.33    2.71
  10   2   2    2.23    0.73
 -10   2  -2    4.46    3.88
  10   2   2    0.98    0.50
 -10   2  -2   -1.96    3.98
 -10   2  -2    0.10    2.17
 -10   2  -2    1.53    1.76
 -12  -2  -2  163.51   14.62
  12  -2   2  146.67   11.62
 -12  -2  -2  147.75   12.70
 -12  -2  -2  166.82   14.39
 -12   2  -2  157.23   13.62
 -12   2  -2  150.84   15.33
 -12   2  -2  155.07   15.14
  12   2   2  171.51   11.54
 -12   2  -2  158.21   13.19
  12   2   2  169.10   11.74
 -14  -2  -2  183.75   16.74
 -14  -2  -2  151.10   16.38
 -14  -2  -2  173.95   14.55
  14  -2   2  176.15   13.04
  14   2   2  182.82   13.12
 -14   2  -2  174.97   18.01
 -14   2  -2  176.26   15.04
  14   2   2  181.78   12.81
 -16  -2  -2   46.93    6.90
 -16  -2  -2   47.10   10.47
  16  -2   2   58.88    4.99
  16  -2   2   59.08    4.48
 -16   2  -2   59.22   11.56
 -16   2  -2   57.01    8.19
 -16   2  -2   56.48   12.28
  16   2   2   55.52    4.68
  16   2   2   52.09    4.95
 -18  -2  -2   20.36   11.69
 -18  -2  -2    9.23    4.63
  18  -2   2   13.92    2.34
 -18  -2  -2   14.62   10.82
  18   2   2   12.78    2.51
 -18   2  -2   27.56   12.72
  18   2   2   14.55    2.19
 -18   2  -2    7.49    5.33
 -20  -2  -2   82.13   19.56
 -20  -2  -2  101.49   12.53
  20  -2   2   97.27    8.15
 -20  -2  -2   71.05   19.83
 -20   2  -2   90.21   13.24
  20   2   2   91.09    8.03
  20   2   2   94.76    7.70
 -19  -3   2    1.73    5.58
 -19  -3   2   -1.76   10.39
  19  -3  -2   -0.64    1.99
 -19  -3   2   -3.06    9.52
 -19   3   2    1.50    6.42
  19   3  -2   -0.69    1.67
  19   3  -2    2.73    1.84
  17  -3  -2   35.42    4.14
 -17  -3   2   29.79    5.44
 -17  -3   2   28.74    8.13
 -17   3   2   25.94    6.70
  17   3  -2   30.91    3.75
  17   3  -2   31.92    3.53
 -15  -3   2   22.40    4.27
  15  -3  -2   15.14    2.60
 -15  -3   2   26.64    5.21
 -15   3   2   10.54    4.18
  15   3  -2   18.34    2.62
  15   3  -2   21.07    2.57
 -13  -3   2   57.15    6.06
  13  -3  -2   55.60    4.91
 -13  -3   2   60.06    6.60
 -13  -3   2   52.93    6.81
 -13   3   2   57.25    4.51
 -13   3   2   55.23    6.30
 -11  -3   2   25.30    3.45
  11  -3  -2   22.88    2.66
  11  -3  -2   22.27    2.69
  11  -3  -2   32.28    3.12
 -11   3   2   23.41    2.18
  11   3  -2   23.14    2.47
 -11   3   2   24.67    3.63
   9  -3  -2   81.54    6.95
  -9  -3   2   83.47    6.95
   9  -3  -2   77.44    6.56
   9  -3  -2   82.99    6.62
   9   3  -2   83.65    6.38
  -9   3   2   82.21    6.19
  -9   3   2  100.10    7.30
   7  -3  -2  177.98   13.06
  -7  -3   2  181.49   13.07
   7  -3  -2  163.03   12.90
   7  -3  -2  186.41   13.56
  -7  -3   2  171.74   12.85
   7   3  -2  182.52   12.68
  -7   3   2  193.49   13.24
   7   3  -2  190.40   13.10
  -7   3   2  164.95   12.52
  -7   3   2  153.62   14.62
   7   3  -2  155.50   12.94
   7   3  -2  183.35   12.38
   5  -3  -2  133.74   10.50
   5  -3  -2  125.67   11.36
  -5  -3   2  141.36   10.43
  -5  -3   2  137.26   10.44
   5  -3  -2  138.59   10.85
  -5   3   2  147.07   11.90
   5   3  -2  144.78   10.55
  -5   3   2  149.12   10.15
  -5   3   2  150.42   10.68
   5   3  -2  144.64   10.21
   5   3  -2  145.77   10.56
  -5   3   2  140.92   10.15
   3  -3  -2   61.02    4.84
   3  -3  -2   63.32    5.13
  -3  -3   2   59.24    5.64
   3  -3  -2   68.29    5.16
  -3  -3   2   62.29    5.08
   3  -3  -2   58.31    6.13
   3  -3  -2   66.41    5.52
   3   3  -2   72.58    5.41
   3   3  -2   65.03    5.17
  -3   3   2   63.82    4.79
   3   3  -2   72.37    5.16
   3   3  -2   67.44    4.78
  -3   3   2   68.53    4.79
   1  -3  -2  192.83   13.93
  -1  -3   2  198.02   14.42
   1  -3  -2  199.44   14.31
  -1  -3   2  188.27   14.18
   1  -3  -2  189.29   13.81
   1  -3  -2  199.50   14.32
   1   3  -2  186.28   14.11
  -1   3   2  219.18   13.92
   1   3  -2  184.77   13.74
   1   3  -2  215.55   14.13
  -1   3   2  184.00   13.87
  -1   3   2  183.03   13.91
   1   3  -2  215.29   13.79
   1   3  -2  193.09   14.27
   1   3  -2  192.77   13.83
   1  -3   2  309.50   23.63
  -1  -3  -2  338.73   23.91
  -1  -3  -2  338.32   23.92
   1  -3   2  324.00   23.50
  -1  -3  -2  320.55   23.20
   1  -3   2  347.83   24.57
  -1  -3  -2  301.77   23.34
   1  -3   2  287.86   23.16
   1  -3   2  339.53   23.49
   1   3   2  324.06   23.28
   1   3   2  382.67   23.78
   1   3   2  373.88   23.36
   1   3   2  322.00   23.30
   3  -3   2   84.50    6.69
   3  -3   2   99.24    6.54
   3  -3   2   88.01    6.28
  -3  -3  -2   83.67    7.20
   3  -3   2   84.80    8.88
  -3  -3  -2   97.82    6.72
  -3  -3  -2   76.33    7.14
   3  -3   2   92.10    6.24
  -3   3  -2   75.20    6.37
  -3   3  -2   90.47    6.28
   3   3   2   85.97    6.37
  -3   3  -2   99.10    8.16
  -3   3  -2   92.82    6.32
  -3   3  -2   87.00    7.98
   3   3   2   88.62    6.41
  -5  -3  -2    1.71    1.57
  -5  -3  -2    2.56    1.09
   5  -3   2   -0.41    3.59
  -5  -3  -2   -0.13    1.53
   5  -3   2    0.78    0.33
   5  -3   2    0.61    0.35
  -5   3  -2    1.61    2.71
  -5   3  -2   -0.40    1.32
   5   3   2    0.91    0.35
  -5   3  -2    0.84    2.65
   5   3   2    0.93    0.38
  -7  -3  -2   38.18    4.60
   7  -3   2   45.94    5.70
  -7  -3  -2   41.42    4.70
  -7  -3  -2   38.60    3.80
   7  -3   2   36.13    3.02
   7   3   2   36.24    3.08
  -7   3  -2   46.57    6.74
   7   3   2   40.68    3.01
  -7   3  -2   43.38    4.56
  -7   3  -2   34.30    5.88
  -9  -3  -2  207.90   14.83
   9  -3   2  197.15   13.92
  -9  -3  -2  177.45   15.56
  -9  -3  -2  189.42   15.68
  -9   3  -2  203.31   16.84
   9   3   2  209.49   15.03
  -9   3  -2  192.57   15.24
   9   3   2  204.90   13.88
   9   3   2  196.77   13.99
  -9   3  -2  163.76   13.99
  -9   3  -2  200.39   17.04
  11  -3   2   10.49    1.43
 -11  -3  -2    9.50    3.70
 -11  -3  -2    9.93    3.79
 -11  -3  -2   12.16    2.76
  11   3   2   10.94    1.34
 -11   3  -2    5.99    2.73
  11   3   2   11.64    1.48
 -11   3  -2   17.50    5.34
 -11   3  -2   13.84    3.15
 -11   3  -2   11.09    2.51
 -11   3  -2    8.33    4.98
 -13  -3  -2    3.56    4.27
  13  -3   2    1.87    0.93
 -13  -3  -2    2.87    2.59
 -13  -3  -2    4.23    3.95
 -13   3  -2    3.71    3.81
 -13   3  -2    0.24    6.03
  13   3   2    2.50    1.22
 -13   3  -2    1.78    2.61
  13   3   2    1.06    0.74
 -15  -3  -2    2.24    3.06
 -15  -3  -2   -3.25    6.55
  15  -3   2    0.84    1.30
  15   3   2    1.74    1.33
 -15   3  -2   -4.34    7.22
 -15   3  -2    3.10    3.88
 -15   3  -2   -3.13    7.96
 -17  -3  -2   50.76   12.44
  17  -3   2   65.84    5.02
 -17  -3  -2   60.47    8.24
 -17  -3  -2   67.01   12.49
 -17   3  -2   53.64   12.30
  17   3   2   62.15    5.56
  17   3   2   64.80    5.35
 -17   3  -2   55.11    8.82
 -19  -3  -2   56.56   15.19
 -19  -3  -2   79.27   10.27
  19  -3   2   62.87    6.03
 -19  -3  -2   56.73   15.51
  19   3   2   61.79    6.00
  19   3   2   67.16    5.76
 -19   3  -2   70.64   10.49
 -20  -4   2   30.98   13.68
  20  -4  -2   18.23    3.30
 -20  -4   2   27.50   13.08
 -20  -4   2   26.54    7.15
 -20   4   2   28.66    8.96
  20   4  -2   21.55    3.53
  20   4  -2   20.50    3.10
 -18  -4   2   38.42    7.04
 -18  -4   2   34.40    9.19
  18  -4  -2   36.29    4.61
 -18  -4   2   56.00   11.19
  18   4  -2   38.74    4.18
  18   4  -2   37.21    4.34
 -18   4   2   38.05    7.87
 -16  -4   2    8.82    6.47
 -16  -4   2   -0.18    3.15
  16  -4  -2    2.31    1.77
 -16  -4   2    5.21    5.18
 -16   4   2    5.64    4.85
  16   4  -2   -0.72    1.27
  16   4  -2   -0.27    1.48
 -14  -4   2   28.08    4.63
  14  -4  -2   22.97    3.11
 -14  -4   2   22.13    5.16
  14   4  -2   17.05    2.47
  14   4  -2   18.16    2.43
 -14   4   2   18.34    4.19
  12  -4  -2    1.97    1.17
  12  -4  -2    2.45    1.32
 -12  -4   2    0.44    1.93
  12   4  -2    1.71    0.70
 -12   4   2    3.62    2.81
  12   4  -2    1.28    0.90
 -12   4   2    0.84    0.64
  10  -4  -2   84.74    6.77
  10  -4  -2   80.77    6.42
  10  -4  -2   77.51    6.50
 -10  -4   2   74.17    6.79
 -10   4   2   78.11    6.04
  10   4  -2   84.22    6.25
 -10   4   2   87.18    7.47
   8  -4  -2   13.00    2.45
   8  -4  -2   10.89    1.95
   8  -4  -2   11.69    1.74
  -8  -4   2   11.36    1.86
  -8   4   2   12.14    2.51
   8   4  -2    9.76    2.36
   8   4  -2   10.58    1.41
  -8   4   2   10.64    1.23
   6  -4  -2   -1.47    1.70
  -6  -4   2    0.12    0.67
   6  -4  -2    0.15    1.45
   6  -4  -2    0.83    0.86
  -6  -4   2   -1.09    0.63
   6   4  -2    1.59    0.93
   6   4  -2    1.27    0.47
  -6   4   2   -2.65    2.83
   6   4  -2   -1.06    1.23
  -6   4   2    0.57    1.37
  -6   4   2    0.70    0.44
  -6   4   2   -0.32    0.34
   4  -4  -2  191.10   16.68
   4  -4  -2  196.12   15.94
  -4  -4   2  210.72   15.53
   4  -4  -2  207.57   15.64
   4  -4  -2  229.99   15.43
   4  -4  -2  203.73   15.39
  -4  -4   2  211.87   15.53
   4   4  -2  242.59   15.27
  -4   4   2  212.11   15.23
  -4   4   2  202.37   15.22
   4   4  -2  209.95   15.63
   4   4  -2  240.52   15.66
   4   4  -2  223.68   15.22
  -4   4   2  212.59   15.37
  -2  -4   2  106.69    8.33
   2  -4  -2  117.13    8.34
   2  -4  -2  123.26    8.38
  -2  -4   2   98.39    7.79
   2   4  -2  107.98    8.25
   2   4  -2  122.96    7.93
  -2   4   2  108.05    8.01
   2   4  -2  100.52    8.18
  -2   4   2  114.95    7.96
   2   4  -2  115.00    7.83
  -2   4   2  102.94    7.94
   0  -4  -2    9.08    0.92
   0  -4  -2    9.19    0.97
   0  -4  -2    8.60    1.69
   0  -4   2    8.54    0.83
   0  -4   2    7.40    1.42
   0  -4   2    9.15    1.27
   0  -4  -2    7.63    1.49
   0   4  -2   10.60    1.20
   0   4   2    9.93    0.98
   0   4  -2   10.30    1.31
   0   4  -2    9.30    0.76
   0   4   2   10.45    0.98
   0   4   2    9.03    0.96
  -2  -4  -2   40.76    3.44
   2  -4   2   52.22    3.72
   2  -4   2   42.88    5.91
  -2  -4  -2   45.43    4.11
   2  -4   2   39.89    3.52
   2  -4   2   42.16    3.56
   2  -4   2   36.35    3.09
   2   4   2   44.95    3.31
   2   4   2   41.69    3.24
  -2   4  -2   47.12    3.15
   2   4   2   45.17    3.29
  -4  -4  -2   48.79    3.75
   4  -4   2   39.70    3.13
  -4  -4  -2   45.18    4.51
  -4  -4  -2   35.12    4.31
   4  -4   2   38.98    3.19
   4  -4   2   42.17    6.54
   4   4   2   44.45    3.35
   4   4   2   44.42    3.29
   4   4   2   52.61    3.44
  -4   4  -2   49.07    5.36
   4   4   2   42.05    3.33
   6  -4   2   -1.93    4.61
   6  -4   2    0.54    0.46
  -6  -4  -2    0.46    1.60
  -6  -4  -2    0.36    1.08
  -6  -4  -2    1.82    1.61
   6   4   2    1.11    0.60
  -6   4  -2    1.39    1.95
  -6   4  -2    0.88    3.07
   6   4   2    0.58    0.49
  -6   4  -2   -0.54    2.79
   6   4   2    1.10    0.45
  -8  -4  -2   97.46    8.97
  -8  -4  -2  105.29    8.19
  -8  -4  -2   92.02    8.88
   8  -4   2  105.33    7.27
   8   4   2   97.30    7.33
   8   4   2  104.21    7.56
  -8   4  -2  103.93   10.01
   8   4   2   88.22    7.21
  -8   4  -2   95.42   10.14
  -8   4  -2   98.80    8.89
 -10  -4  -2   -1.30    2.43
 -10  -4  -2    0.83    2.65
 -10  -4  -2    0.40    1.78
  10  -4   2   -0.22    0.67
  10   4   2   -0.46    1.83
 -10   4  -2   -3.54    3.79
 -10   4  -2   -2.35    2.08
  10   4   2   -0.05    0.61
 -10   4  -2    1.33    4.56
  10   4   2    0.30    0.57
 -12  -4  -2   39.11    6.61
 -12  -4  -2   35.00    4.89
  12  -4   2   32.75    3.11
 -12  -4  -2   35.00    6.13
 -12   4  -2   30.13   10.01
 -12   4  -2   38.53    7.79
  12   4   2   38.43    3.29
  12   4   2   36.70    3.03
 -12   4  -2   31.96    5.27
 -14  -4  -2   38.55    7.82
 -14  -4  -2   35.15    5.46
  14  -4   2   38.02    3.42
 -14   4  -2   35.94    6.47
  14   4   2   35.48    3.93
 -14   4  -2   38.02    8.24
 -14   4  -2   48.07    9.05
  14   4   2   37.44    3.64
 -16  -4  -2    3.70    3.75
  16  -4   2    8.67    1.91
 -16  -4  -2    2.89    8.13
 -16  -4  -2    8.12    7.11
  16   4   2    6.22    1.73
 -16   4  -2    7.87    4.86
 -16   4  -2   13.42    7.94
  16   4   2    9.76    1.69
 -18  -4  -2    1.48    4.51
 -18  -4  -2   -2.25    9.28
  18  -4   2    6.42    1.98
 -18  -4  -2   -9.45    9.64
  18  -4   2    7.47    1.45
  18   4   2    9.04    2.17
  18   4   2    3.25    1.67
 -18   4  -2   12.76    6.50
 -20  -4  -2   -7.28   14.42
 -20  -4  -2   14.06   14.61
  20  -4   2    6.94    2.49
 -20  -4  -2    5.60    5.96
  20   4   2    6.37    2.41
 -20   4  -2   13.38    7.99
  20   4   2    8.46    2.21
 -19  -5   2   11.63   10.42
  19  -5  -2    1.63    2.44
 -19  -5   2   -7.21    4.79
 -19  -5   2    3.05    8.77
  19   5  -2    0.00    1.95
  19   5  -2    0.59    1.70
 -19   5   2    0.98    7.19
 -17  -5   2    7.89    4.75
 -17  -5   2    6.28    6.50
  17  -5  -2   13.58    2.64
 -17  -5   2    4.93    7.74
 -17   5   2    6.09    6.02
  17   5  -2    8.70    1.95
  17   5  -2   10.22    2.30
  15  -5  -2   10.55    2.31
 -15  -5   2    5.19    4.82
 -15  -5   2    9.08    3.71
 -15  -5   2    9.98    6.01
 -15   5   2   10.58    1.93
  15   5  -2    8.20    1.86
  15   5  -2    9.52    1.84
 -15   5   2   11.58    4.43
 -13  -5   2    7.02    3.22
  13  -5  -2    3.30    2.62
 -13   5   2    4.34    2.99
  13   5  -2    6.37    1.46
  13   5  -2    4.70    1.51
  11  -5  -2    0.22    1.12
 -11  -5   2    2.06    1.68
  11  -5  -2    1.03    1.24
  11  -5  -2   -0.82    1.21
 -11   5   2    0.31    0.66
  11   5  -2    0.31    0.78
  11   5  -2   -0.79    0.62
 -11   5   2   -1.75    2.43
   9  -5  -2   58.73    5.85
   9  -5  -2   64.66    5.50
  -9  -5   2   69.95    5.84
   9  -5  -2   70.87    5.58
   9   5  -2   66.58    5.11
   9   5  -2   63.54    5.06
  -9   5   2   65.48    6.64
  -9   5   2   65.61    5.00
  -7  -5   2    0.78    0.97
   7  -5  -2    1.03    0.98
  -7  -5   2   -0.43    0.73
   7  -5  -2    0.52    1.43
   7  -5  -2    1.74    1.98
   7   5  -2    0.87    0.53
   7   5  -2    0.51    0.50
   7   5  -2    0.17    1.83
  -7   5   2    1.65    0.54
  -7   5   2    0.21    0.44
   5  -5  -2   80.68    6.42
  -5  -5   2   76.01    5.68
  -5  -5   2   69.78    5.55
   5  -5  -2   62.53    7.04
   5  -5  -2   78.50    5.39
   5  -5  -2   64.58    5.66
   5  -5  -2   71.81    5.59
  -5   5   2   69.99    5.19
   5   5  -2   69.01    5.10
  -5   5   2   63.26    5.15
   5   5  -2   70.40    5.17
   5   5  -2   60.86    5.17
   5   5  -2   74.08    5.88
   3  -5  -2    3.69    1.44
   3  -5  -2    5.20    2.26
  -3  -5   2    4.76    0.52
  -3  -5   2    5.02    1.21
   3  -5  -2    4.91    1.15
  -3   5   2    4.48    0.82
  -3   5   2    4.73    0.73
   3   5  -2    4.64    0.67
  -3   5   2    5.15    0.74
   3   5  -2    5.33    0.60
   3   5  -2    3.83    0.61
   3   5  -2    4.82    1.16
  -1  -5   2   28.31    2.60
   1   5  -2   26.76    1.99
  -1   5   2   25.43    2.18
  -1   5   2   26.19    2.12
   1   5  -2   25.64    2.48
  -1   5   2   27.02    2.16
  -1  -5  -2    0.62    0.39
   1  -5   2    1.38    1.00
   1  -5   2    0.31    0.21
  -1  -5  -2    0.91    0.48
   1  -5   2   -0.70    0.57
   1   5   2   -0.11    0.41
   1   5   2    0.02    0.37
   1   5   2    0.11    0.36
  -1   5  -2    0.47    0.35
  -1   5  -2    0.27    0.25
  -1   5  -2   -0.42    0.28
   3  -5   2    9.01    1.37
   3  -5   2   11.76    1.41
   3  -5   2   11.36    0.97
  -3  -5  -2    8.05    2.15
  -3  -5  -2    7.28    1.27
   3  -5   2   12.06    1.63
  -3  -5  -2   13.79    2.43
  -3   5  -2   10.56    1.01
   3   5   2   10.63    1.16
   3   5   2    8.89    1.04
   3   5   2   10.00    1.15
  -3   5  -2    8.73    1.06
  -5  -5  -2   17.78    3.21
  -5  -5  -2   19.11    3.35
  -5  -5  -2   18.63    2.20
   5   5   2   16.42    1.66
   5   5   2   17.12    1.67
   5   5   2   16.37    1.58
  -5   5  -2   29.14    4.24
   5   5   2   19.82    1.76
  -5   5  -2   16.48    1.63
  -7  -5  -2   28.81    4.07
  -7  -5  -2   28.50    3.24
   7  -5   2   23.85    2.22
  -7  -5  -2   24.62    4.11
   7   5   2   22.49    2.20
   7   5   2   28.53    2.45
  -7   5  -2   30.53    4.94
   7   5   2   30.33    2.39
   7   5   2   26.92    2.33
  -9  -5  -2   53.72    5.22
   9  -5   2   49.03    4.08
  -9  -5  -2   51.34    6.37
  -9  -5  -2   51.73    6.45
   9   5   2   49.62    4.20
  -9   5  -2   71.68    7.64
   9   5   2   54.76    4.72
  -9   5  -2   53.67    6.52
  -9   5  -2   50.25    7.11
   9   5   2   53.44    4.10
 -11  -5  -2    4.09    3.96
  11  -5   2    5.87    1.14
 -11  -5  -2    5.18    3.47
 -11  -5  -2    7.25    2.11
 -11   5  -2    6.11    2.81
 -11   5  -2    1.94    4.44
  11   5   2    6.73    1.12
  11   5   2    4.33    2.44
  11   5   2    6.04    1.19
 -11   5  -2   13.69    5.09
 -13  -5  -2   11.36   10.31
 -13  -5  -2   18.73    6.00
  13  -5   2   20.21    2.18
 -13  -5  -2   20.34    4.06
 -13   5  -2    9.83    4.42
  13   5   2   17.54    2.34
 -13   5  -2   22.34    6.27
 -13   5  -2   31.25    6.62
  13   5   2   19.62    2.28
 -15  -5  -2    5.34    6.95
 -15  -5  -2   -0.25    5.87
  15  -5   2   -0.70    1.29
 -15  -5  -2   -5.25    2.98
  15   5   2   -1.97    1.11
 -15   5  -2   -9.37    4.24
  15   5   2   -0.83    1.29
 -17  -5  -2    0.68    3.92
 -17  -5  -2   10.08    9.59
 -17  -5  -2   16.63    8.72
  17  -5   2    3.45    1.73
  17   5   2    2.69    1.60
  17   5   2    4.16    1.67
 -17   5  -2   -1.78    5.56
 -19  -5  -2    1.40    5.32
  19  -5   2    3.99    2.07
 -19  -5  -2   -9.96   10.28
 -19  -5  -2    9.16   12.83
  19   5   2    1.12    1.81
 -19   5  -2   -1.51    7.41
  19   5   2    1.50    1.84
 -18  -6   2  -13.36    7.58
 -18  -6   2   10.95    4.91
 -18  -6   2    2.32    7.81
  18  -6  -2    5.01    2.40
  18   6  -2    8.36    2.33
 -18   6   2    2.48    7.39
  18   6  -2    5.37    1.76
  16  -6  -2    2.92    2.08
 -16  -6   2    4.60    4.22
 -16  -6   2   -2.36    5.96
 -16  -6   2   -0.59    5.47
  16   6  -2    1.90    1.54
  16   6  -2   -0.01    1.35
 -16   6   2    1.72    1.63
 -16   6   2    3.60    5.97
 -14  -6   2    2.06    4.28
  14  -6  -2   -0.94    1.67
 -14  -6   2   -8.86    4.58
 -14  -6   2    0.91    3.27
 -14   6   2    1.66    1.29
  14   6  -2    0.61    1.19
  14   6  -2   -0.01    1.25
  12  -6  -2    1.57    1.18
 -12  -6   2    2.71    2.44
  12  -6  -2    2.94    1.35
 -12   6   2   -0.28    3.07
  12   6  -2    4.75    1.35
  12   6  -2    2.84    1.31
  10  -6  -2   50.80    4.75
 -10  -6   2   49.48    5.16
  10  -6  -2   45.50    4.54
  10  -6  -2   57.70    5.03
 -10   6   2   56.55    4.22
  10   6  -2   50.65    4.26
  10   6  -2   53.58    4.26
  -8  -6   2    1.71    1.04
   8  -6  -2    0.73    1.14
   8  -6  -2   -0.07    1.58
  -8  -6   2    2.70    1.24
   8  -6  -2    1.26    2.13
   8   6  -2    3.55    2.61
   8   6  -2    1.14    0.64
  -8   6   2    1.41    0.65
   8   6  -2    1.00    0.67
   6  -6  -2    8.41    1.32
  -6  -6   2    6.85    1.34
   6  -6  -2    8.80    1.40
  -6  -6   2    7.27    1.56
   6  -6  -2    8.00    1.53
   6  -6  -2    3.05    1.98
   6  -6  -2    7.75    2.42
   6  -6  -2    7.39    3.01
   6  -6  -2    9.81    2.34
   6   6  -2   10.45    2.16
   6   6  -2    8.62    1.09
   6   6  -2    6.89    1.06
  -6   6   2    5.93    0.96
   6   6  -2    9.15    1.05
  -6   6   2    7.35    1.00
  -4  -6   2   10.66    1.64
   4  -6  -2   12.78    1.83
   4  -6  -2   12.84    2.17
   4  -6  -2   11.67    1.71
   4  -6  -2   11.28    2.99
  -4  -6   2    8.65    0.90
  -4  -6   2   12.20    1.70
   4   6  -2    8.76    1.08
   4   6  -2   13.12    1.92
  -4   6   2    9.85    1.11
  -4   6   2    9.04    1.27
   4   6  -2   11.00    1.09
   4   6  -2    9.68    1.13
  -4   6   2    8.70    1.08
  -2  -6   2   39.86    3.52
  -2   6   2   35.07    2.94
  -2   6   2   39.14    3.00
   2   6  -2   43.13    2.85
  -2   6   2   38.91    3.08
   2   6  -2   30.12    2.89
   2   6  -2   41.84    3.44
   0  -6  -2   19.17    1.86
   0  -6   2   17.54    2.16
   0   6  -2   19.81    1.57
   0   6  -2   19.78    1.65
   0   6   2   20.52    1.78
   0   6  -2   17.92    1.62
   0   6   2   20.57    1.78
   0   6   2   21.96    1.72
   2  -6   2    8.66    1.39
  -2  -6  -2    9.53    1.32
   2  -6   2    9.61    1.73
   2  -6   2    8.16    1.01
  -2  -6  -2    9.38    0.87
  -2   6  -2    9.46    0.91
   2   6   2   10.06    1.12
   2   6   2    8.60    1.03
  -2   6  -2    8.80    0.99
   2   6   2    6.48    0.98
  -2   6  -2   10.62    1.04
   4  -6   2   20.60    2.38
  -4  -6  -2   23.57    2.52
   4  -6   2   24.36    2.14
   4  -6   2   24.00    2.50
  -4   6  -2   26.41    2.06
   4   6   2   25.45    2.03
   4   6   2   19.70    1.99
  -4   6  -2   23.70    2.05
   4   6   2   23.71    2.12
  -6  -6  -2   33.75    5.03
  -6  -6  -2   46.16    5.16
   6  -6   2   37.18    3.35
  -6  -6  -2   44.62    4.16
   6   6   2   44.17    3.51
   6   6   2   48.59    3.46
   6   6   2   46.73    3.47
  -6   6  -2   44.21    3.51
  -8  -6  -2    1.05    1.58
  -8  -6  -2    0.28    2.28
   8  -6   2    1.69    0.75
  -8  -6  -2    2.15    2.52
   8   6   2    1.13    0.56
   8   6   2    1.91    1.26
   8   6   2    1.01    1.12
   8   6   2    1.56    0.81
   8   6   2    3.30    0.86
 -10  -6  -2    7.56    2.43
  10  -6   2    9.46    1.37
 -10  -6  -2    7.56    3.57
  10   6   2   11.36    1.55
  10   6   2   10.94    1.57
  10   6   2   11.13    1.40
  10   6   2    9.76    1.45
 -10   6  -2   18.23    4.56
  10   6   2   12.43    2.28
  12  -6   2   17.18    1.94
 -12  -6  -2   18.98    5.70
 -12  -6  -2   12.75    3.64
 -12  -6  -2   16.55    6.32
  12   6   2   13.62    1.93
  12   6   2    9.90    1.89
 -12   6  -2   13.93    4.89
 -14  -6  -2   -2.61    3.10
 -14  -6  -2    1.99    6.79
 -14  -6  -2   -7.94    4.88
  14  -6   2   -0.34    1.03
  14   6   2   -0.65    1.05
  14   6   2   -0.95    1.10
 -14   6  -2    2.41    4.88
 -16  -6  -2   14.76    4.69
  16  -6   2   12.98    2.24
 -16  -6  -2   15.99    8.42
 -16  -6  -2    9.53    7.76
 -16   6  -2    6.24    6.21
  16   6   2    9.76    1.94
  16   6   2   12.55    2.24
 -18  -6  -2   12.83    5.37
  18  -6   2    2.79    1.98
 -18  -6  -2   -5.15   10.10
 -18  -6  -2   11.98    9.70
  18   6   2    0.84    1.60
  18   6   2   -0.35    1.86
 -19  -7   2   15.12   10.75
 -19  -7   2    0.80    5.38
  19  -7  -2    3.74    2.76
 -19  -7   2    8.64    9.56
  19   7  -2    5.83    2.41
  19   7  -2   -1.42    1.79
 -17  -7   2   68.33   11.71
 -17  -7   2   66.86   12.04
 -17  -7   2   77.57    9.47
  17   7  -2   77.31    6.38
  17   7  -2   70.13    6.60
 -15  -7   2   26.35    6.74
 -15  -7   2   17.35    4.38
 -15  -7   2   20.20    7.13
  15  -7  -2   26.23    3.51
  15   7  -2   21.80    3.00
 -15   7   2   25.67    3.03
  15   7  -2   22.97    2.92
 -13  -7   2   12.15    3.67
  13  -7  -2   12.95    2.48
  13   7  -2    9.90    1.88
  13   7  -2   11.19    1.88
 -13   7   2    9.84    1.79
  11  -7  -2    6.69    1.44
  11  -7  -2    4.29    1.57
 -11  -7   2    0.61    2.20
  11  -7  -2    3.58    1.75
  11   7  -2    3.26    1.15
  11   7  -2    5.20    1.30
 -11   7   2    3.95    1.12
   9  -7  -2   89.16    6.76
  -9  -7   2   87.03    7.14
   9  -7  -2   68.49    7.31
   9  -7  -2   90.26    6.89
  -9   7   2   78.47    6.12
   9   7  -2   78.38    6.18
   9   7  -2   78.71    6.06
   9   7  -2   76.59    6.13
   7  -7  -2  112.60    9.34
  -7  -7   2  119.33    9.16
   7  -7  -2  106.43   10.80
   7  -7  -2  118.81   10.07
  -7  -7   2  125.17    9.56
  -7   7   2  122.09    8.86
  -7   7   2  109.99    8.80
   7   7  -2  124.80    9.88
   7   7  -2  130.27    8.88
   7   7  -2  130.66    8.90
   7   7  -2  119.25    8.77
  -5  -7   2   37.01    3.86
   5  -7  -2   46.26    4.76
  -5  -7   2   45.66    3.95
   5  -7  -2   44.20    4.11
   5  -7  -2   50.39    3.99
   5  -7  -2   39.98    5.86
   5  -7  -2   45.58    3.90
  -5   7   2   43.98    3.44
   5   7  -2   44.29    3.45
  -5   7   2   43.64    3.71
   5   7  -2   42.19    3.34
   5   7  -2   42.98    3.39
  -5   7   2   39.54    3.39
   5   7  -2   37.24    4.31
  -3  -7   2    0.16    0.90
   3   7  -2    1.60    1.24
  -3   7   2   -0.43    0.64
   3   7  -2    0.26    0.46
  -3   7   2    0.44    0.47
  -3   7   2    0.25    0.51
   3   7  -2    0.16    0.41
  -1  -7   2  148.46   11.33
  -1   7   2  151.26   10.91
   1   7  -2  149.63   10.77
   1   7  -2  148.66   10.74
  -1   7   2  162.86   10.99
   1   7  -2  158.24   10.85
  -1   7   2  138.76   10.83
   1  -7   2  212.23   15.30
  -1  -7  -2  212.57   14.80
  -1  -7  -2  208.13   15.08
   1   7   2  230.80   14.94
   1   7   2  209.96   14.92
   1   7   2  189.90   14.78
  -1   7  -2  188.55   14.77
  -1   7  -2  212.58   14.81
  -1   7  -2  210.05   14.72
   3  -7   2    3.26    1.53
  -3  -7  -2    1.50    0.91
   3  -7   2    2.68    1.02
   3  -7   2    2.35    0.67
   3   7   2    2.66    0.69
  -3   7  -2    1.56    0.60
   3   7   2    2.10    0.56
   3   7   2    3.86    0.75
  -3   7  -2    1.88    0.61
  -3   7  -2    2.85    0.55
   5  -7   2    1.60    1.17
   5  -7   2    0.68    1.13
  -5  -7  -2    3.22    1.26
   5  -7   2    0.92    0.64
   5   7   2    1.21    0.59
   5   7   2    3.94    0.70
  -5   7  -2    2.43    0.83
   5   7   2    2.01    0.73
  -5   7  -2    1.43    0.65
  -7  -7  -2    2.28    2.40
   7  -7   2    2.35    0.74
  -7  -7  -2    0.46    2.22
  -7  -7  -2    2.72    1.35
  -7   7  -2   -0.03    0.60
   7   7   2   -0.05    0.58
   7   7   2   -1.09    0.66
  -9  -7  -2  224.00   21.01
  -9  -7  -2  242.48   18.82
  -9  -7  -2  251.74   20.26
   9  -7   2  240.08   17.81
   9   7   2  272.14   17.77
   9   7   2  252.35   17.91
   9   7   2  241.12   18.01
   9   7   2  282.01   17.76
   9   7   2  220.24   17.92
 -11  -7  -2   58.89    8.44
 -11  -7  -2   48.57    5.98
 -11  -7  -2   64.48    8.47
  11  -7   2   45.18    4.02
  11   7   2   48.37    4.24
 -13  -7  -2    4.36    3.42
 -13  -7  -2    3.66    5.42
 -13  -7  -2    0.73    5.24
  13  -7   2   -1.33    0.90
  13   7   2   -0.62    1.30
  13   7   2    1.13    1.02
  13   7   2   -0.56    1.18
 -15  -7  -2   16.67    7.48
 -15  -7  -2   17.73    7.92
 -15  -7  -2   10.86    3.98
  15  -7   2   18.78    2.47
  15   7   2   13.66    2.38
  15   7   2   14.46    2.24
  15   7   2   17.04    2.56
 -17  -7  -2   65.06    8.95
 -17  -7  -2   46.39   12.09
 -17  -7  -2   74.74   14.73
  17  -7   2   66.15    5.90
  17   7   2   60.80    5.96
  17   7   2   65.01    5.77
  17   7   2   71.81    6.14
 -18  -8   2   56.13   12.52
 -18  -8   2   41.53    7.84
  18  -8  -2   43.10    5.71
 -18  -8   2   58.99   11.90
  18   8  -2   44.16    5.38
  18   8  -2   48.08    5.35
  18   8  -2   41.49    4.78
 -16  -8   2   33.06    8.39
 -16  -8   2   16.23    4.86
  16  -8  -2   24.26    3.69
 -16  -8   2   14.60    6.94
  16   8  -2   23.46    3.30
  16   8  -2   20.49    2.86
 -16   8   2   25.45    3.15
  16   8  -2   25.79    3.15
  14  -8  -2   12.29    2.72
 -14  -8   2   15.58    4.18
  14   8  -2   11.82    2.16
  14   8  -2   14.62    2.34
 -14   8   2   12.21    2.08
  14   8  -2   12.39    2.16
 -12  -8   2  117.52   10.10
  12   8  -2  114.38    8.62
  12   8  -2  103.22    8.51
 -12   8   2  111.55    8.51
  12   8  -2  109.24    8.39
  10  -8  -2  141.71   11.18
 -10  -8   2  140.21   11.86
  10  -8  -2  149.85   11.48
  10  -8  -2  152.13   10.98
 -10   8   2  136.17   10.68
  10   8  -2  145.24   10.62
  10   8  -2  138.85   10.73
  10   8  -2  149.64   10.74
   8  -8  -2   10.85    2.19
  -8  -8   2   13.66    2.03
   8  -8  -2   13.39    3.95
  -8  -8   2   22.85    2.90
   8  -8  -2   16.61    3.38
   8   8  -2   16.41    1.82
   8   8  -2   16.44    1.78
  -8   8   2   16.48    1.72
   8   8  -2   15.02    1.87
   8   8  -2   13.96    3.19
  -8   8   2   17.80    1.79
   6  -8  -2  139.93   10.55
  -6  -8   2  148.07   10.59
   6  -8  -2  153.87   10.61
  -6  -8   2  133.13   10.80
   6  -8  -2  132.96   10.77
   6  -8  -2  129.98   12.65
   6  -8  -2  142.12   11.94
   6  -8  -2  147.55   11.57
  -6   8   2  146.06   10.47
  -6   8   2  135.91   10.18
   6   8  -2  145.62   10.94
   6   8  -2  140.82   10.08
   6   8  -2  136.30   10.19
  -6   8   2  121.89   10.11
   6   8  -2  138.12   10.15
  -4  -8   2   48.26    4.84
   4  -8  -2   67.27    7.14
  -4  -8   2   54.71    5.03
   4  -8  -2   63.21    5.49
  -4   8   2   62.45    4.42
   4   8  -2   54.51    5.11
   4   8  -2   55.20    4.29
   4   8  -2   61.17    4.45
  -4   8   2   54.56    4.42
  -4   8   2   52.99    4.57
  -2  -8   2  101.57    8.11
  -2   8   2  105.40    7.66
   2   8  -2   98.17    7.37
  -2   8   2   97.24    7.52
  -2   8   2  108.39    7.50
   0  -8  -2   57.03    4.43
   0  -8  -2   57.35    4.61
   0  -8   2   55.63    4.94
   0   8  -2   57.94    4.23
   0   8  -2   57.10    4.34
   0   8   2   57.94    4.42
   0   8   2   59.08    4.49
   0   8  -2   55.83    4.28
   0   8   2   54.20    4.31
  -2  -8  -2    7.40    1.04
   2  -8   2    6.38    1.54
  -2  -8  -2    8.54    1.43
  -2   8  -2    8.24    1.06
  -2   8  -2    7.01    1.04
   2   8   2    8.41    1.05
   2   8   2    8.13    1.14
  -2   8  -2    7.66    0.93
   4  -8   2  115.34    9.15
  -4  -8  -2  122.63    9.08
   4  -8   2  108.23    8.46
   4  -8   2  125.18    9.19
   4   8   2  116.86    8.43
  -4   8  -2  120.43    8.58
   4   8   2  116.40    8.63
   4   8   2  108.95    8.58
  -4   8  -2  117.81    8.58
  -4   8  -2  115.85    8.43
  -6  -8  -2  222.86   17.52
  -6  -8  -2  239.90   18.92
  -6   8  -2  249.90   16.93
  -6   8  -2  239.40   16.98
   6   8   2  237.73   16.96
   6   8   2  223.73   16.96
   8  -8   2   43.33    3.48
  -8  -8  -2   44.03    6.73
  -8  -8  -2   47.40    4.62
  -8  -8  -2   41.71    6.70
   8   8   2   38.44    3.29
   8   8   2   44.32    3.52
   8   8   2   43.46    3.62
  -8   8  -2   38.25    3.52
  10  -8   2   47.85    4.25
 -10  -8  -2   49.88    5.93
 -10  -8  -2   60.32    8.22
 -10  -8  -2   53.97    8.44
  10   8   2   61.69    4.05
  10   8   2   51.20    4.46
  10   8   2   47.46    4.36
  10   8   2   51.12    4.57
 -12  -8  -2  107.23   13.33
 -12  -8  -2  110.86   12.89
 -12  -8  -2  134.87   11.04
  12  -8   2  112.44    8.71
  12   8   2  112.44    9.05
  12   8   2  121.32    9.04
  12   8   2  116.45    8.88
 -14  -8  -2   30.05    5.55
 -14  -8  -2   31.29    8.48
  14  -8   2   25.90    2.94
 -14  -8  -2   30.21    7.89
  14   8   2   25.74    3.17
  14   8   2   28.80    3.41
  14   8   2   28.92    3.35
 -16  -8  -2    3.65    8.35
 -16  -8  -2   -0.38    4.13
 -16  -8  -2   -4.45    7.50
  16  -8   2    1.18    1.84
  16   8   2    3.63    1.98
  16   8   2    2.87    1.70
  16   8   2    1.21    1.69
 -18  -8  -2   -4.03    4.97
 -18  -8  -2    6.74   10.08
  18  -8   2    0.74    2.21
 -18  -8  -2   14.97   12.04
  18   8   2    0.21    2.09
  18   8   2    0.48    2.00
  18   8   2   -2.96    2.26
 -17  -9   2   53.95    9.25
 -17  -9   2   68.81   11.96
 -17  -9   2   74.36   13.22
  17  -9  -2   90.24    7.66
  17   9  -2   73.99    7.08
  17   9  -2   85.07    6.91
  17   9  -2   77.23    7.24
 -17   9   2   75.14    6.92
  15  -9  -2   99.11    9.21
 -15  -9   2  104.39   13.84
 -15  -9   2   97.85   10.78
 -15  -9   2   93.62   13.39
  15   9  -2  109.75    8.65
 -15   9   2  112.12    8.64
  15   9  -2  109.34    8.61
  15   9  -2  109.66    8.72
 -13  -9   2   28.01    4.87
  13  -9  -2   22.42    3.56
  13   9  -2   26.43    3.30
 -13   9   2   26.50    3.03
  13   9  -2   22.70    2.97
  13   9  -2   20.21    2.86
  11  -9  -2    2.00    1.83
  11  -9  -2    6.07    1.97
 -11  -9   2    2.95    2.31
  11   9  -2    2.36    1.31
  11   9  -2    5.76    1.28
  11   9  -2    6.00    1.63
 -11   9   2    5.07    1.34
  -9  -9   2   72.94    5.76
   9  -9  -2   69.92    6.13
   9  -9  -2   64.04    6.59
  -9  -9   2   72.77    6.83
   9  -9  -2   66.14    7.43
  -9   9   2   71.03    5.53
   9   9  -2   55.77    5.49
   9   9  -2   70.91    5.41
   9   9  -2   74.28    5.51
   7  -9  -2  156.02   11.77
  -7  -9   2  153.69   11.94
   7  -9  -2  142.91   13.83
   7  -9  -2  125.64   13.66
   7  -9  -2  147.92   11.47
  -7  -9   2  161.94   11.45
   7  -9  -2  157.53   12.55
   7  -9  -2  129.31   12.48
   7   9  -2  155.78   11.16
  -7   9   2  156.12   11.12
   7   9  -2  150.54   11.11
   7   9  -2  162.19   11.89
  -7   9   2  141.44   11.07
   7   9  -2  163.23   11.04
  -5  -9   2  297.87   21.86
  -5  -9   2  287.68   22.08
   5  -9  -2  304.39   22.46
   5  -9  -2  346.86   22.19
   5  -9  -2  250.29   21.94
   5  -9  -2  294.98   23.85
   5   9  -2  305.21   21.49
  -5   9   2  286.43   21.45
  -5   9   2  314.86   21.46
   5   9  -2  304.22   21.34
   5   9  -2  318.44   21.88
  -5   9   2  295.04   21.67
  -3  -9   2   12.28    2.26
  -3   9   2   14.94    1.89
  -3   9   2   11.82    1.48
   3   9  -2   15.85    1.49
  -3   9   2   16.53    1.65
   3   9  -2   16.16    1.65
  -1  -9   2  253.30   18.34
   1   9  -2  236.55   17.54
   1   9  -2  231.09   17.68
   1   9  -2  246.45   17.59
  -1   9   2  237.60   17.72
  -1   9   2  274.12   17.69
  -1   9   2  255.88   17.85
  -1  -9  -2  223.74   16.36
  -1  -9  -2  213.01   16.61
   1   9   2  240.46   16.26
   1   9   2  227.26   16.38
  -1   9  -2  225.83   16.31
  -1   9  -2  236.44   16.19
  -1   9  -2  226.06   16.27
   3  -9   2   74.20    6.17
   3  -9   2   62.42    5.39
  -3  -9  -2   73.11    5.93
   3   9   2   69.75    5.27
   3   9   2   74.04    5.50
  -3   9  -2   70.50    5.40
   3   9   2   73.11    5.50
  -3   9  -2   70.44    5.41
  -3   9  -2   71.82    5.27
   5  -9   2   -1.27    2.10
  -5  -9  -2    3.87    1.45
   5  -9   2    1.93    1.59
   5  -9   2   -0.16    0.76
  -5   9  -2    1.58    0.74
   5   9   2    3.35    0.83
   5   9   2    0.91    0.84
  -5   9  -2    1.00    0.99
  -7  -9  -2   69.43    7.92
  -7  -9  -2   70.53    8.53
  -7  -9  -2   72.80    6.23
   7   9   2   67.27    5.43
   7   9   2   69.63    5.37
   7   9   2   66.15    5.05
  -7   9  -2   65.73    5.35
  -9  -9  -2  102.57   11.24
  -9  -9  -2  110.76    9.91
  -9  -9  -2   89.15   10.86
   9   9   2  115.47    7.73
   9   9   2   95.79    8.14
   9   9   2  115.98    8.28
 -11  -9  -2  107.67    9.25
 -11  -9  -2   95.45   11.46
  11  -9   2   96.57    7.29
 -11  -9  -2   82.47   11.40
  11   9   2   93.43    7.49
  11   9   2   95.49    7.63
  13  -9   2    9.01    1.57
 -13  -9  -2    0.63    5.69
 -13  -9  -2   13.42    6.48
 -13  -9  -2    3.49    3.92
  13   9   2    7.78    1.86
  13   9   2    6.57    1.78
 -15  -9  -2   69.81   12.30
 -15  -9  -2   60.63    8.54
 -15  -9  -2   98.53   14.35
  15  -9   2   65.69    5.64
  15   9   2   60.84    5.91
  15   9   2   63.82    5.98
  15   9   2   64.17    5.71
 -17  -9  -2   95.25   11.04
  17  -9   2   87.87    7.70
 -17  -9  -2   99.10   16.39
 -17  -9  -2   99.09   16.57
  17   9   2   87.64    7.70
  17   9   2   94.98    8.09
 -16 -10   2    0.84    4.54
 -16 -10   2    9.38    8.35
 -16 -10   2    3.00    7.61
  16 -10  -2    1.22    2.92
  16  10  -2    6.11    2.09
  16  10  -2    5.16    2.41
 -16  10   2    6.20    2.27
  16  10  -2    6.30    2.57
  14 -10  -2   40.69    4.76
 -14 -10   2   26.98    5.53
  14  10  -2   40.96    4.22
 -14  10   2   31.57    3.86
  14  10  -2   41.88    4.34
  14  10  -2   31.59    3.87
 -12 -10   2  139.38   12.54
  12 -10  -2  167.26   11.79
  12  10  -2  140.99   10.91
 -12  10   2  137.05   10.87
  12  10  -2  136.37   10.87
  12  10  -2  142.75   10.99
 -10 -10   2   88.65    8.29
  10 -10  -2   83.21    7.25
  10 -10  -2   79.33    7.92
 -10  10   2   80.09    6.64
  10  10  -2   91.98    6.84
  10  10  -2   75.56    6.67
  10  10  -2   87.36    6.60
   8 -10  -2    9.94    4.59
   8 -10  -2    4.72    4.85
   8 -10  -2   10.09    3.65
   8 -10  -2   11.46    4.03
  -8 -10   2    3.80    2.32
  -8 -10   2    9.02    1.84
   8 -10  -2    7.91    2.32
   8 -10  -2    9.83    2.29
  -8  10   2    6.78    1.46
   8  10  -2    7.25    1.31
  -8  10   2    7.03    1.42
   8  10  -2    5.98    1.34
   6 -10  -2   23.10    3.60
   6 -10  -2   21.19    3.39
   6 -10  -2   24.96    4.11
   6 -10  -2   21.72    3.21
  -6 -10   2   23.71    2.86
   6 -10  -2   14.39    5.32
  -6 -10   2   22.48    3.16
  -6  10   2   21.47    2.19
  -6  10   2   24.51    2.80
  -6  10   2   22.06    2.24
   6  10  -2   20.65    2.16
   6  10  -2   18.14    2.21
   6  10  -2   24.42    3.33
  -4 -10   2  338.40   24.02
  -4 -10   2  326.68   23.83
   4  10  -2  328.04   23.32
   4  10  -2  323.94   23.13
  -4  10   2  337.07   23.27
  -4  10   2  313.40   23.28
  -4  10   2  317.52   23.48
  -2 -10   2  177.64   13.68
  -2  10   2  184.59   12.98
  -2  10   2  180.77   13.12
   2  10  -2  188.54   12.98
   2  10  -2  177.74   12.77
  -2  10   2  162.67   12.86
   0 -10   2    9.17    2.34
   0 -10  -2   11.60    1.81
   0 -10  -2   11.05    1.69
   0  10   2   10.43    1.48
   0  10   2   13.16    1.60
   0  10  -2   13.32    1.42
   0  10  -2   12.70    1.56
   0  10  -2   11.89    1.32
   0  10   2    9.37    1.27
   2 -10   2   22.51    3.31
  -2 -10  -2   28.50    3.00
  -2 -10  -2   24.15    2.60
   2  10   2   27.86    2.34
  -2  10  -2   27.87    2.56
   2  10   2   27.82    2.56
   2  10   2   27.77    2.64
  -2  10  -2   25.66    2.30
  -2  10  -2   27.51    2.46
  -4 -10  -2  329.56   24.39
   4 -10   2  318.70   24.44
   4 -10   2  321.62   23.72
  -4  10  -2  351.66   23.88
   4  10   2  330.57   23.89
   4  10   2  359.14   23.74
  -4  10  -2  330.93   23.82
   4  10   2  325.35   23.87
  -4  10  -2  333.48   23.66
   6 -10   2  181.04   13.57
   6 -10   2  159.77   14.26
  -6 -10  -2  188.37   14.53
   6 -10   2  182.24   14.46
   6 -10   2  225.84   15.02
  -6  10  -2  184.35   13.75
   6  10   2  186.07   13.43
  -6  10  -2  211.80   13.96
   6  10   2  186.98   13.79
   6  10   2  184.27   14.70
  -8 -10  -2    9.15    4.73
   8 -10   2    4.46    1.12
  -8 -10  -2    4.71    2.56
   8 -10   2    2.21    2.02
  -8 -10  -2   -2.80    3.84
   8  10   2    3.75    0.87
   8  10   2    3.30    1.20
  -8  10  -2    4.80    1.42
   8  10   2    2.84    1.87
 -10 -10  -2   28.40    7.06
 -10 -10  -2   33.28    4.86
 -10 -10  -2   37.50    7.23
  10 -10   2   27.27    2.93
  10  10   2   29.41    3.21
  10  10   2   30.23    3.41
  12 -10   2   68.46    5.33
 -12 -10  -2   65.88    8.06
 -12 -10  -2   66.53   11.25
 -12 -10  -2   67.24   10.99
  12  10   2   59.35    5.72
  12  10   2   65.16    5.59
 -14 -10  -2  140.52   11.90
 -14 -10  -2  133.40   16.20
  14 -10   2   99.01    8.74
 -14 -10  -2  132.74   15.89
  14  10   2  111.42    9.06
  14  10   2  118.17    9.33
  16 -10   2   13.42    2.61
 -16 -10  -2   15.78    9.97
 -16 -10  -2   18.42    5.66
 -16 -10  -2   20.27   10.26
  16  10   2   13.97    2.52
  16  10   2   12.94    3.03
 -15 -11   2  111.33   15.77
 -15 -11   2  126.64   15.56
  15 -11  -2  103.62   10.21
  15  11  -2  116.69    9.41
  15  11  -2  128.35    9.81
  15  11  -2  112.58    9.57
 -15  11   2  116.69    9.48
 -13 -11   2   20.57    4.72
  13 -11  -2   24.47    3.92
  13  11  -2   21.55    2.94
  13  11  -2   21.06    3.06
  13  11  -2   22.66    3.07
 -13  11   2   23.56    3.09
 -11 -11   2    6.13    3.35
  11 -11  -2    4.36    2.84
  11  11  -2    5.84    1.85
  11  11  -2    7.64    1.76
 -11  11   2    5.22    1.53
   9 -11  -2   42.53    6.57
   9 -11  -2   45.83    4.74
   9 -11  -2   41.23    6.01
  -9 -11   2   31.83    5.12
   9  11  -2   40.11    3.83
   9  11  -2   40.55    3.67
  -9  11   2   39.62    3.71
   7 -11  -2  191.35   15.66
   7 -11  -2  174.43   17.91
  -7 -11   2  208.89   15.15
  -7 -11   2  205.60   15.97
   7 -11  -2  218.04   15.66
   7 -11  -2  191.33   16.59
   7  11  -2  214.79   14.75
   7  11  -2  202.72   14.95
  -7  11   2  204.47   14.90
  -7  11   2  204.56   14.90
  -7  11   2  213.49   15.26
   5 -11  -2  170.87   12.66
   5 -11  -2  138.53   12.04
   5 -11  -2  138.89   12.57
  -5 -11   2  154.38   11.84
  -5 -11   2  146.04   12.26
   5 -11  -2  165.94   12.55
   5 -11  -2  169.80   14.95
  -5  11   2  160.63   11.66
   5  11  -2  155.07   11.16
   5  11  -2  151.49   11.99
  -5  11   2  145.73   11.38
  -3 -11   2    1.61    2.06
  -3 -11   2    2.85    1.40
  -3  11   2    4.38    1.01
  -3  11   2    5.54    1.30
   3  11  -2    2.71    1.02
  -3  11   2    4.54    1.03
   1 -11  -2  156.06   11.35
  -1 -11   2  157.96   12.20
   1 -11  -2  146.82   11.38
  -1  11   2  135.71   10.95
   1  11  -2  150.27   10.88
  -1  11   2  143.11   11.06
   1  11  -2  157.08   11.12
  -1  11   2  164.90   11.30
  -1 -11  -2  206.95   16.04
   1 -11   2  210.80   16.47
  -1 -11  -2  210.51   15.80
   1  11   2  217.52   15.81
   1  11   2  196.11   15.48
  -1  11  -2  214.12   15.47
  -1  11  -2  219.38   15.58
  -1  11  -2  251.67   15.78
   1  11   2  222.21   15.70
   3 -11   2  141.95   10.06
   3 -11   2  122.67   10.94
  -3 -11  -2  132.24   10.62
  -3  11  -2  143.70   10.11
  -3  11  -2  131.14    9.84
   3  11   2  151.98    9.87
   3  11   2  123.38   10.03
  -3  11  -2  129.16    9.98
   5 -11   2    6.69    1.29
  -5 -11  -2    8.60    2.06
   5 -11   2    5.33    2.34
   5  11   2    4.51    1.36
  -5  11  -2    6.68    1.30
   5  11   2    4.81    1.35
   5  11   2    6.96    1.07
  -7 -11  -2   67.61    9.39
  -7 -11  -2   65.26    6.63
   7 -11   2   63.81    6.49
  -7 -11  -2   55.02    9.24
   7  11   2   66.92    5.43
   7  11   2   71.32    4.91
   7  11   2   56.76    5.43
  -7  11  -2   62.86    5.39
  -9 -11  -2   92.89   12.00
   9 -11   2   98.54    9.32
  -9 -11  -2  101.74   12.02
  -9 -11  -2  109.39    9.89
   9  11   2  105.04    8.32
   9  11   2  109.89    8.24
 -11 -11  -2   92.39   12.25
 -11 -11  -2   63.62   11.50
  11 -11   2  100.90    9.38
  11 -11   2  107.45    7.34
  11  11   2   95.01    7.81
  11  11   2   88.80    7.66
 -13 -11  -2    6.48    6.88
  13 -11   2   13.04    1.84
 -13 -11  -2   11.02    7.40
  13 -11   2   11.07    4.91
 -13 -11  -2    8.48    4.42
  13  11   2    8.82    2.44
  13  11   2    7.49    2.07
 -15 -11  -2   72.00   13.69
 -15 -11  -2   68.71   13.58
 -15 -11  -2   70.54    9.81
  15  11   2   83.28    7.11
  15  11   2   69.67    6.61
 -14 -12   2    9.53    4.92
 -14 -12   2    4.75    8.19
 -14 -12   2    6.04    7.15
  14 -12  -2   10.03    3.55
  14  12  -2   10.00    2.67
 -14  12   2    6.50    2.23
  14  12  -2    8.83    2.17
  12 -12  -2  155.17   12.44
 -12 -12   2  145.06   13.42
  12  12  -2  167.33   11.55
  12  12  -2  128.23   11.44
 -12  12   2  153.55   11.54
 -10 -12   2  106.83   10.67
  10 -12  -2  139.45   10.33
  10  12  -2  110.40    9.07
 -10  12   2  112.05    8.97
   8 -12  -2   -0.27    2.17
   8 -12  -2   -2.55    4.24
   8 -12  -2    1.46    5.64
   8 -12  -2   -5.77    3.35
  -8 -12   2    1.56    1.66
  -8 -12   2   -0.59    2.44
  -8  12   2    0.71    1.28
   8  12  -2    0.35    1.15
   8  12  -2    0.39    1.34
  -8  12   2   -1.35    1.19
   6 -12  -2   26.91    6.79
   6 -12  -2   41.30    5.93
   6 -12  -2   30.63    5.48
  -6 -12   2   35.56    4.55
   6 -12  -2   45.55    5.59
   6 -12  -2   39.63    4.84
  -6 -12   2   45.45    5.30
  -6  12   2   39.67    3.72
   6  12  -2   42.59    3.93
   6  12  -2   40.22    3.50
  -6  12   2   40.35    3.71
  -6  12   2   47.97    4.87
   4 -12  -2   99.80    8.47
  -4 -12   2   84.16    7.72
   4 -12  -2   75.73   10.53
   4 -12  -2   80.93    7.45
   4 -12  -2  101.01    8.52
   4 -12  -2   91.04    8.64
   4  12  -2   81.49    6.37
   4  12  -2   87.98    6.80
  -4  12   2   74.13    6.99
  -4  12   2   84.18    6.59
  -4  12   2   79.48    6.63
   2 -12  -2   73.05    6.28
  -2 -12   2   70.32    7.32
   2 -12  -2   63.42    5.77
  -2  12   2   65.12    5.30
  -2  12   2   66.01    5.57
  -2  12   2   71.22    5.86
   2  12  -2   64.18    5.50
   2  12  -2   72.18    5.21
   0 -12   2   46.00    6.13
   0 -12  -2   49.57    4.99
   0 -12  -2   60.03    5.08
   0  12  -2   53.13    4.21
   0  12   2   59.17    4.83
   0  12   2   49.75    4.23
   0  12   2   49.65    4.42
   0  12  -2   58.43    4.55
  -2 -12  -2    4.32    1.27
   2 -12   2    2.05    2.36
  -2 -12  -2    1.22    1.46
   2  12   2    1.60    0.98
   2  12   2   -0.48    0.79
   2  12   2    2.49    1.42
  -2  12  -2    2.87    1.00
  -2  12  -2    1.24    1.03
  -2  12  -2    2.46    0.87
   4 -12   2  100.64    8.42
   4 -12   2  117.03    9.88
  -4 -12  -2  129.82    9.40
  -4  12  -2  115.21    8.29
  -4  12  -2  109.68    8.88
   4  12   2  121.59    8.75
   4  12   2  100.73    8.20
   6 -12   2  280.36   19.97
  -6 -12  -2  234.12   18.99
  -6 -12  -2  240.32   21.18
  -6 -12  -2  252.14   21.57
   6 -12   2  225.09   18.88
   6 -12   2  259.36   17.75
  -6  12  -2  239.57   18.10
   6  12   2  242.82   18.10
  -6  12  -2  222.86   17.99
   6  12   2  249.87   18.10
   6  12   2  270.17   17.63
  -8 -12  -2   10.00    3.42
   8 -12   2   10.54    3.29
  -8 -12  -2    9.80    5.97
  -8 -12  -2   19.33    6.40
   8 -12   2   10.26    2.14
   8  12   2   13.27    2.08
   8  12   2   16.72    2.42
  10 -12   2   29.27    4.91
 -10 -12  -2   38.24    8.55
 -10 -12  -2   39.34    8.28
 -10 -12  -2   23.91    5.10
  10  12   2   28.65    3.51
  10  12   2   31.15    3.79
 -12 -12  -2   75.98   12.37
 -12 -12  -2   80.32    9.49
 -12 -12  -2   78.16   12.61
  12 -12   2   75.89    9.13
  12  12   2   80.71    7.12
  12  12   2   81.03    6.86
 -14 -12  -2   38.33    7.27
  14 -12   2   36.59    6.43
 -14 -12  -2   40.10   11.09
 -14 -12  -2   43.07   10.31
  14  12   2   38.90    4.62
  14  12   2   38.21    4.50
 -13 -13   2   19.55    5.36
  13 -13  -2   22.27    4.30
 -13  13   2   19.51    3.18
  13  13  -2   22.81    3.17
  13  13  -2   25.39    3.44
  11 -13  -2    0.77    3.43
 -11 -13   2   -2.75    3.54
 -11  13   2   -0.17    1.61
  11  13  -2   -0.21    1.97
  11  13  -2   -0.93    1.68
   9 -13  -2   55.19    6.77
  -9 -13   2   61.94    7.09
   9  13  -2   60.08    6.55
  -9  13   2   55.24    5.08
   9  13  -2   54.02    5.19
   7 -13  -2  117.53    9.52
  -7 -13   2   94.82    7.72
   7 -13  -2  101.21   10.73
  -7 -13   2   85.83    8.88
   7 -13  -2   73.44   12.61
   7 -13  -2   82.59    9.42
  -7  13   2   95.51    7.47
   7  13  -2   96.30    7.62
  -7  13   2   86.26    8.33
   7  13  -2   99.84    7.26
  -7  13   2   88.88    7.39
  -5 -13   2    8.35    2.85
   5 -13  -2   13.78    3.94
  -5 -13   2   13.53    4.22
   5 -13  -2    3.73    5.35
   5 -13  -2   11.15    2.96
   5 -13  -2   14.96    4.56
   5 -13  -2   11.63    3.99
   5 -13  -2    5.81    2.79
  -5  13   2   11.34    1.95
   5  13  -2    8.05    1.87
  -5  13   2   16.24    2.73
   5  13  -2   11.13    1.61
  -5  13   2   12.99    1.91
   3 -13  -2    2.14    2.44
   3 -13  -2    6.99    4.01
   3 -13  -2    2.39    3.27
   3 -13  -2   -0.13    1.60
  -3 -13   2    0.16    2.19
  -3 -13   2    6.17    3.22
  -3  13   2    1.93    1.27
   3  13  -2    3.23    1.46
  -3  13   2    3.89    1.34
  -3  13   2    0.55    1.77
   3  13  -2    2.25    1.04
   1 -13  -2   49.64    5.04
  -1 -13   2   53.42    6.41
   1 -13  -2   56.14    7.23
   1  13  -2   61.56    4.96
  -1  13   2   49.83    4.67
   1  13  -2   55.14    4.33
  -1  13   2   53.47    4.99
  -1  13   2   53.03    5.28
   1 -13   2  114.49   10.51
  -1 -13  -2  118.42    9.49
  -1 -13  -2  101.88    9.23
   1  13   2  140.89    8.96
  -1  13  -2  121.87    8.66
   1  13   2  101.23    9.10
   1  13   2  116.25    8.98
  -1  13  -2  116.64    9.30
   3 -13   2   31.12    4.76
   3 -13   2   31.39    3.52
  -3 -13  -2   36.31    7.08
  -3 -13  -2   30.08    6.69
   3  13   2   37.16    3.06
   3  13   2   33.59    3.66
   3  13   2   31.76    3.52
  -3  13  -2   35.63    3.07
  -3  13  -2   30.64    3.63
  -5 -13  -2    9.77    5.52
  -5 -13  -2   13.99    5.72
  -5 -13  -2    6.19    2.69
   5 -13   2    6.10    3.01
   5  13   2    3.82    1.11
   5  13   2    3.10    1.54
   5  13   2    1.36    1.31
  -5  13  -2   -0.88    1.79
  -7 -13  -2   33.11    5.12
  -7 -13  -2   33.33    7.84
   7 -13   2   46.69    5.52
  -7 -13  -2   46.95    8.99
   7  13   2   35.95    3.89
   7  13   2   33.20    4.01
  -9 -13  -2   79.51   11.80
   9 -13   2   82.26    8.69
  -9 -13  -2   79.10    8.80
  -9 -13  -2   78.87   12.31
   9  13   2   80.04    6.89
   9  13   2   84.14    7.04
  11 -13   2   40.39    6.32
 -11 -13  -2   48.92   10.62
 -11 -13  -2   68.86    8.00
 -11 -13  -2   42.15   10.17
  11  13   2   43.65    5.05
  11  13   2   45.27    4.77
 -13 -13  -2    0.37    4.94
 -13 -13  -2   -4.09    8.22
 -13 -13  -2    6.05    8.73
  13 -13   2   -1.73    4.66
  13  13   2    1.64    2.00
  13  13   2   -1.93    2.36
 -12 -14   2    5.15    4.37
  12 -14  -2   18.74    4.23
 -12  14   2   13.49    2.72
  12  14  -2   10.22    2.66
  12  14  -2   10.19    2.77
 -10 -14   2   31.14    5.98
  10 -14  -2   37.54    5.43
  10  14  -2   42.40    4.60
  10  14  -2   30.97    4.05
 -10  14   2   43.39    4.33
   8 -14  -2   -1.47    3.33
   8 -14  -2    7.28    3.42
   8 -14  -2    5.71    7.25
  -8 -14   2    4.03    3.21
  -8  14   2    2.52    1.59
   8  14  -2    1.46    1.77
  -8  14   2   -0.55    1.54
   8  14  -2    2.01    1.87
   6 -14  -2   21.61    4.08
   6 -14  -2   17.88    4.09
  -6 -14   2   19.15    4.03
   6 -14  -2   27.35    5.62
   6 -14  -2   17.78    7.94
   6 -14  -2    8.42    5.15
   6 -14  -2   21.12    5.30
  -6  14   2   17.89    2.52
   6  14  -2   13.85    2.49
   6  14  -2   18.43    2.26
  -6  14   2   19.99    2.51
  -6  14   2   19.77    3.52
   4 -14  -2    7.77    2.25
   4 -14  -2    5.95    4.61
   4 -14  -2    2.05    3.64
  -4 -14   2    5.88    3.34
   4 -14  -2    1.59    7.78
   4 -14  -2    8.99    3.24
  -4 -14   2    6.96    2.77
   4  14  -2    9.76    1.51
  -4  14   2    7.48    1.74
   4  14  -2    7.29    1.97
  -4  14   2    7.18    1.73
  -4  14   2    5.08    2.28
   2 -14  -2   27.66    3.77
   2 -14  -2   29.81    6.45
  -2 -14   2   24.80    4.74
   2 -14  -2   25.45    4.17
  -2 -14   2   25.45    4.23
   2  14  -2   26.29    3.20
  -2  14   2   25.72    3.07
   2  14  -2   27.74    2.74
  -2  14   2   24.13    3.45
  -2  14   2   24.67    3.01
   0 -14   2   25.05    4.91
   0 -14  -2   16.52    3.20
   0 -14  -2   20.95    6.24
   0 -14  -2   26.92    6.50
   0 -14  -2   18.13    3.18
   0  14   2   17.49    2.72
   0  14  -2   18.70    2.71
   0  14   2   21.89    2.43
   0  14   2   15.64    2.39
   0  14  -2   19.28    2.11
  -2 -14  -2   13.21    3.30
   2 -14   2   20.68    4.53
  -2 -14  -2   19.14    5.81
  -2 -14  -2   31.88    7.33
   2  14   2   12.39    2.32
  -2  14  -2   13.41    1.87
   2  14   2   19.80    2.25
   2  14   2   14.75    2.21
  -2  14  -2   12.78    2.61
  -4 -14  -2   41.43    8.56
  -4 -14  -2   46.89    8.60
  -4 -14  -2   49.62    5.93
   4 -14   2   43.71    6.05
   4  14   2   41.90    4.51
   4  14   2   41.19    4.36
  -4  14  -2   56.25    5.27
   4  14   2   41.46    3.82
  -6 -14  -2    7.88    3.37
   6 -14   2   12.46    3.94
  -6 -14  -2   10.79    5.98
  -6 -14  -2   11.91    6.59
   6  14   2    8.17    2.10
  -6  14  -2   12.70    3.33
   6  14   2    7.17    1.97
  -8 -14  -2    6.80    6.61
   8 -14   2   10.83    4.03
  -8 -14  -2    5.16    6.58
  -8 -14  -2   11.37    4.34
   8  14   2   13.16    2.44
   8  14   2    8.92    2.28
 -10 -14  -2   18.02    7.56
 -10 -14  -2    5.14    4.76
  10 -14   2   21.82    4.97
 -10 -14  -2   11.81    7.94
  10  14   2   16.21    2.93
  10  14   2   12.52    2.60
 -12 -14  -2   13.40    5.62
 -12 -14  -2   15.92    8.77
  12 -14   2    3.50    5.31
 -12 -14  -2   -2.15    8.07
  12  14   2   11.82    2.97
  12  14   2    5.89    2.35
  -9 -15   2    2.59    3.97
   9 -15  -2    1.67    4.68
   9 -15  -2    1.69    3.79
  -9  15   2   -3.18    1.78
   9  15  -2   -2.03    2.09
   9  15  -2    3.45    2.15
   7 -15  -2  -14.36    8.06
   7 -15  -2   -0.30    3.84
  -7 -15   2    4.57    3.40
   7 -15  -2   10.50    4.27
   7  15  -2    4.18    2.00
  -7  15   2    2.51    1.87
  -7  15   2    3.78    1.85
   7  15  -2    5.94    2.22
   5 -15  -2   -0.92    5.30
   5 -15  -2    6.70    6.94
  -5 -15   2    5.42    3.34
   5 -15  -2    8.51    6.60
   5 -15  -2    6.25    3.89
   5 -15  -2    5.61    8.67
   5 -15  -2    7.52    4.11
  -5  15   2    6.68    1.87
   5  15  -2    5.61    2.12
  -5  15   2    5.68    2.93
   5  15  -2    6.31    2.89
  -5  15   2    3.54    1.76
   3 -15  -2   12.03    5.73
  -3 -15   2    8.41    4.35
  -3 -15   2    5.24    2.99
   3 -15  -2    5.73    6.25
   3 -15  -2    7.80    3.94
   3 -15  -2    7.01    2.92
  -3  15   2    7.80    1.92
  -3  15   2    6.76    2.42
   3  15  -2    6.39    1.72
   3  15  -2    8.20    2.15
  -3  15   2    4.29    1.75
  -1 -15   2   14.88    3.53
   1 -15  -2   15.41    3.54
   1 -15  -2   17.38    6.79
  -1 -15   2   17.06    5.08
   1 -15  -2    8.80    5.76
   1  15  -2   14.29    2.00
  -1  15   2   13.05    2.21
  -1  15   2   12.16    2.74
   1  15  -2   11.98    2.59
  -1  15   2   13.88    2.21
  -1 -15  -2   23.47    7.48
  -1 -15  -2   17.90    3.67
   1 -15   2   18.96    5.20
  -1 -15  -2   24.95    6.95
   1  15   2   23.19    3.26
   1  15   2   20.22    2.72
   1  15   2   23.11    2.71
  -1  15  -2   20.85    3.21
  -1  15  -2   21.50    2.55
  -3 -15  -2    9.77    6.03
  -3 -15  -2    2.38    5.83
  -3 -15  -2    5.57    3.37
   3 -15   2   13.89    4.95
   3  15   2   10.25    1.88
   3  15   2    4.93    2.21
  -3  15  -2   12.24    1.92
   3  15   2    8.65    2.00
  -3  15  -2    9.24    3.01
  -5 -15  -2    0.30    5.85
   5 -15   2   -5.79    4.14
  -5 -15  -2   -2.89    3.18
  -5 -15  -2    2.37    5.88
   5  15   2   -4.44    1.66
  -5  15  -2    4.52    2.97
   5  15   2    4.04    2.01
  -7 -15  -2   -0.89    3.65
  -7 -15  -2   -3.24    6.33
  -7 -15  -2    6.84    7.32
   7 -15   2    9.58    4.67
   7  15   2    4.60    2.08
   7  15   2    2.05    1.95
  -9 -15  -2   -9.15    7.34
  -9 -15  -2    3.44    4.62
  -9 -15  -2    2.04    7.82
   9 -15   2   -0.24    4.76
   9  15   2    4.47    2.42
   9  15   2    1.66    2.07
   8 -16  -2    7.13    7.27
  -8 -16   2    4.88    4.38
  -8  16   2    1.09    2.25
   8  16  -2   -0.19    2.22
   6 -16  -2    7.93    5.15
   6 -16  -2   -4.91    4.12
   6 -16  -2    8.52   11.05
  -6 -16   2   -3.97    3.56
  -6  16   2   -0.22    1.79
  -6  16   2    0.53    3.41
  -6  16   2   -0.30    1.81
   6  16  -2   -0.56    2.24
   4 -16  -2    7.46    7.63
   4 -16  -2    6.90    6.37
  -4 -16   2    1.66    3.49
   4 -16  -2   -0.42    2.96
   4 -16  -2   -3.58    7.34
   4 -16  -2    9.20    9.22
   4 -16  -2   -8.07    4.15
  -4  16   2   -1.84    1.68
   4  16  -2    4.67    1.96
  -4  16   2    2.86    1.89
   4  16  -2    0.23    2.23
  -4  16   2   -4.38    2.63
   2 -16  -2   17.24    7.59
  -2 -16   2   16.35    3.96
   2 -16  -2    8.14    6.79
   2 -16  -2    5.02    3.43
  -2  16   2   10.50    2.25
   2  16  -2   11.91    2.73
  -2  16   2    5.55    2.87
  -2  16   2    6.09    2.13
   2  16  -2   11.84    2.19
   0 -16  -2   12.27    6.67
   0 -16  -2    7.80    6.85
   0 -16  -2    3.85    3.29
   0 -16   2   -0.63    3.07
   0 -16   2   -8.05    5.62
   0  16   2    4.98    2.50
   0  16   2    0.94    1.81
   0  16   2    2.06    1.86
   0  16  -2   -0.99    2.30
   0  16  -2   -0.76    1.63
  -2 -16  -2   -1.24    3.24
   2 -16   2    2.62    5.43
  -2 -16  -2    4.59    6.59
  -2 -16  -2    0.43    6.83
   2  16   2    4.20    2.40
   2  16   2    3.34    1.92
  -2  16  -2    2.82    2.81
   2  16   2    4.42    2.03
  -2  16  -2    4.22    1.76
   4 -16   2   -1.63    5.39
  -4 -16  -2   -9.86    6.01
  -4 -16  -2    1.37    3.68
  -4 -16  -2   -1.73    6.73
   4  16   2   -0.37    2.09
   4  16   2    3.47    2.08
  -4  16  -2   -0.07    3.13
   6 -16   2   -1.24    5.41
  -6 -16  -2    5.41    4.35
  -6 -16  -2   -1.12    7.34
  -6 -16  -2    5.07    7.04
  -6  16  -2    5.25    3.70
   6  16   2    0.22    2.20
   6  16   2   -3.22    1.96
  -8 -16  -2    5.32    5.10
  -8 -16  -2   15.57    8.40
  -8 -16  -2   -0.21    8.16
   8 -16   2    7.56    5.62
   8  16   2    6.74    2.74
   8  16   2   11.44    2.73
   5 -17  -2   14.16   13.13
  -5 -17   2   11.16    4.28
  -5  17   2    9.63    2.37
   5  17  -2    3.23    2.84
  -5  17   2    6.63    4.04
  -5  17   2    5.75    2.49
   3 -17  -2    5.08    3.94
   3 -17  -2  -11.41    8.61
   3 -17  -2   11.28    5.25
  -3 -17   2   -1.33    3.84
   3 -17  -2    3.01   11.00
   3 -17  -2    8.93    8.73
   3 -17  -2    3.32    7.38
  -3  17   2    2.17    2.31
  -3  17   2    0.72    3.29
   3  17  -2    2.73    2.86
  -3  17   2    5.25    2.27
   1 -17  -2    9.59    8.64
   1 -17  -2   15.82    8.44
  -1 -17   2    8.28    4.01
   1 -17  -2    6.56    4.19
   1  17  -2   11.69    2.99
  -1  17   2   10.47    2.56
  -1  17   2   13.00    3.37
  -1  17   2    7.95    2.44
  -1 -17  -2   53.03   11.03
  -1 -17  -2   55.15   10.65
   1 -17   2   58.25    7.66
  -1 -17  -2   48.85    6.82
   1  17   2   59.82    5.64
  -1  17  -2   51.71    5.18
   1  17   2   56.34    6.31
   1  17   2   56.95    5.56
  -1  17  -2   65.55    6.82
  -3 -17  -2  -15.78    7.30
  -3 -17  -2   -9.00    3.95
  -3 -17  -2    2.18    7.87
   3 -17   2   -2.34    6.77
   3  17   2    4.62    2.59
   3  17   2    2.08    2.21
  -3  17  -2   -0.03    3.57
 -20   0   3   -1.50    6.53
  20   0  -3   -0.34    2.18
  18   0  -3    1.47    1.91
 -18   0   3    1.61    4.95
  16   0  -3    2.65    1.62
 -16   0   3    0.15    3.69
 -16   0   3    3.26    5.07
 -16   0   3    1.20    6.00
 -14   0   3   -5.73    2.12
 -14   0   3    2.20    3.09
  14   0  -3    1.91    1.49
 -14   0   3    0.70    0.79
 -14   0   3    1.61    3.59
 -12   0   3    4.33    2.42
  12   0  -3    0.40    1.21
 -12   0   3    1.26    2.07
 -12   0   3   -0.37    0.55
  12   0  -3   -0.81    0.96
 -12   0   3    1.78    2.14
  10   0  -3   -0.45    0.88
 -10   0   3    0.11    0.42
  10   0  -3    1.45    1.39
 -10   0   3   -2.20    1.30
  10   0  -3   -0.02    1.07
  -8   0   3    2.15    1.17
   8   0  -3   -0.97    1.17
  -8   0   3    0.11    0.31
   8   0  -3   -0.13    1.04
   8   0  -3   -1.07    0.64
   6   0  -3    0.82    1.18
   6   0  -3    0.16    0.69
   6   0  -3    0.04    1.02
  -6   0   3    1.06    0.78
  -6   0   3    1.16    0.80
   6   0  -3   -0.37    1.06
  -6   0   3    0.40    0.29
   4   0  -3    0.43    1.03
  -4   0   3    2.79    2.52
   4   0  -3    2.90    1.41
  -4   0   3   -0.45    1.81
  -4   0   3    0.32    0.48
  -4   0   3   -0.51    0.27
  -4   0   3   -0.25    0.55
   4   0  -3    1.05    0.77
   4   0  -3    0.19    0.53
  -2   0   3    0.99    2.20
  -2   0   3    1.17    1.65
   2   0  -3    0.01    0.57
   2   0  -3    0.51    1.43
   2   0  -3    0.24    0.26
  -2   0   3   -0.05    0.37
  -2   0   3    0.35    0.58
   2   0  -3    0.69    0.58
   2   0  -3    1.19    1.67
  -2   0   3    0.34    0.20
   2   0  -3    0.68    1.12
   0   0  -3    0.00    1.94
   0   0  -3    0.37    0.57
   0   0  -3    0.34    0.27
   0   0   3    0.19    0.51
   0   0  -3   -0.88    1.25
   0   0   3   -0.34    1.01
   0   0   3    1.21    1.64
   0   0  -3    1.63    0.94
   0   0  -3    0.09    0.35
   0   0  -3    0.21    2.23
   0   0   3    0.21    0.19
   0   0   3    3.90    2.55
  -2   0  -3   -1.07    0.70
   2   0   3   -0.07    0.17
   2   0   3    0.42    0.46
  -2   0  -3    0.27    0.39
  -2   0  -3    1.22    0.87
  -2   0  -3    0.70    1.21
  -2   0  -3    0.12    0.22
  -2   0  -3    0.65    2.02
  -2   0  -3   -1.96    1.92
   2   0   3    1.13    2.91
  -4   0  -3    0.82    2.31
  -4   0  -3   -0.01    0.89
   4   0   3    0.46    0.28
  -4   0  -3    1.92    2.01
   4   0   3    0.01    0.18
   4   0   3   -0.24    0.42
  -4   0  -3    0.12    0.31
  -6   0  -3   -3.33    2.25
   6   0   3    0.10    0.24
   6   0   3    0.21    0.38
  -6   0  -3   -0.32    1.05
  -6   0  -3   -2.40    2.42
  -8   0  -3    5.13    3.16
  -8   0  -3    3.34    3.12
  -8   0  -3   -0.61    1.20
 -10   0  -3   10.84    3.63
 -10   0  -3   -5.08    3.20
  10   0   3    0.00    0.52
  10   0   3   -0.16    0.41
 -10   0  -3   -0.50    1.60
 -12   0  -3   -0.42    4.44
  12   0   3   -0.69    0.63
  12   0   3    0.55    0.53
 -12   0  -3   -1.92    2.02
 -12   0  -3   -5.29    4.03
  14   0   3   -0.32    1.01
 -14   0  -3    2.33    5.60
 -14   0  -3   -1.23    2.84
  14   0   3   -1.04    0.66
 -14   0  -3    1.46    5.45
  16   0   3   -0.06    0.92
 -16   0  -3    0.93    8.44
 -16   0  -3  -11.92    9.04
 -16   0  -3    2.81    3.57
  16   0   3   -1.64    1.25
  18   0   3    2.78    1.55
  18   0   3   -1.85    1.50
 -18   0  -3   11.61    5.79
 -18   0  -3   -5.14   12.09
 -18   0  -3  -17.36   12.91
 -20   0  -3   -6.69    6.17
  20   0   3   -3.40    2.00
 -20   0  -3    1.21   17.55
 -19  -1   3   40.32    7.63
  19  -1  -3   28.27    3.97
 -19   1   3   34.95    7.60
  19   1  -3   31.18    4.23
  17  -1  -3   24.82    3.54
 -17  -1   3   41.61    7.42
 -17  -1   3   26.97    5.84
 -17  -1   3   30.41    8.03
  17   1  -3   23.54    3.40
 -17   1   3   22.58    5.54
 -15  -1   3   -0.33    3.42
  15  -1  -3    2.99    1.66
 -15  -1   3   -1.07    4.36
 -15  -1   3    2.18    3.51
 -15   1   3    6.61    3.26
  15   1  -3    0.99    1.58
 -15   1   3    7.47    4.44
 -15   1   3    1.30    0.96
 -15   1   3    2.66    5.25
 -13  -1   3   -2.74    2.42
  13  -1  -3   -1.18    1.14
 -13  -1   3   -0.99    2.12
 -13  -1   3    3.94    2.81
  13  -1  -3    1.82    1.37
 -13   1   3    4.52    2.87
 -13   1   3   -1.47    3.07
  13   1  -3    3.02    1.77
 -13   1   3    4.02    2.31
  11  -1  -3   72.61    6.29
  11  -1  -3   76.97    6.16
 -11  -1   3   74.07    5.52
 -11  -1   3   74.42    6.63
  11  -1  -3   88.13    6.91
 -11   1   3   70.08    6.59
 -11   1   3   74.11    5.60
 -11   1   3   71.74    6.47
  11   1  -3   74.22    6.03
 -11   1   3   72.27    6.54
  11   1  -3   80.33    6.40
   9  -1  -3    9.70    2.17
   9  -1  -3    8.91    1.84
   9  -1  -3    9.93    1.71
  -9  -1   3    8.57    1.89
  -9  -1   3    8.30    0.89
   9   1  -3    9.39    2.08
   9   1  -3    8.08    1.45
  -9   1   3   11.50    1.99
   9   1  -3    8.16    1.65
  -9   1   3    7.34    0.97
  -7  -1   3    1.81    0.89
  -7  -1   3    1.51    0.34
   7  -1  -3    1.14    0.77
  -7  -1   3    2.09    1.04
   7  -1  -3    1.75    1.35
   7  -1  -3    2.12    1.39
  -7   1   3    2.06    1.09
   7   1  -3    1.50    1.40
   7   1  -3    2.76    1.18
  -7   1   3    1.74    0.46
  -7   1   3    4.98    2.35
   7   1  -3    1.43    0.78
   7   1  -3    1.38    1.42
   5  -1  -3   34.92    4.30
   5  -1  -3   41.66    3.55
  -5  -1   3   41.96    3.44
   5  -1  -3   35.89    3.38
   5  -1  -3   41.40    3.97
  -5  -1   3   36.39    3.20
  -5  -1   3   40.91    2.96
  -5   1   3   36.88    5.05
  -5   1   3   42.69    2.99
   5   1  -3   39.63    3.26
   5   1  -3   35.23    3.64
  -5   1   3   38.64    3.19
  -5   1   3   34.61    4.35
  -5   1   3   40.15    2.95
   5   1  -3   41.94    4.14
   5   1  -3   39.78    3.54
   3  -1  -3    0.11    0.69
  -3  -1   3    0.62    0.67
  -3  -1   3    4.46    1.98
  -3  -1   3    1.41    1.98
   3  -1  -3   -0.28    1.34
   3  -1  -3    0.79    1.46
   3  -1  -3   -1.37    1.17
   3  -1  -3    1.73    0.72
   3  -1  -3    0.24    1.46
  -3  -1   3   -0.26    0.33
   3   1  -3    1.11    0.55
  -3   1   3    0.70    0.26
  -3   1   3   -0.52    1.95
  -3   1   3    0.64    0.30
  -3   1   3    0.70    0.55
  -3   1   3   -0.52    2.30
   3   1  -3   -1.14    0.72
   3   1  -3    0.10    1.11
   3   1  -3    0.97    0.27
  -3   1   3   -0.82    2.41
   3   1  -3    1.17    0.96
  -3   1   3    0.46    0.37
   1  -1  -3  262.28   18.58
   1  -1  -3  306.17   20.06
  -1  -1   3  267.00   18.27
   1  -1  -3  262.82   19.72
  -1  -1   3  262.49   19.75
   1  -1  -3  230.38   19.65
  -1  -1   3  252.06   18.71
  -1  -1   3  217.62   19.28
   1  -1  -3  216.04   19.00
   1   1  -3  262.42   18.27
   1   1  -3  289.21   19.08
  -1   1   3  265.13   19.86
  -1   1   3  265.92   18.59
   1   1  -3  231.72   19.34
   1   1  -3  278.12   18.74
  -1   1   3  267.08   18.49
  -1   1   3  281.96   18.51
   1   1  -3  288.19   19.93
  -1   1   3  258.72   19.61
   1   1  -3  255.40   18.50
  -1  -1  -3   63.20    5.81
  -1  -1  -3   58.78    5.48
  -1  -1  -3   62.66    4.61
   1  -1   3   51.56    6.61
  -1  -1  -3   71.89    4.94
  -1  -1  -3   57.34    5.77
  -1  -1  -3   59.42    4.47
   1  -1   3   56.17    5.48
   1  -1   3   54.55    4.53
  -1   1  -3   48.66    6.09
   1   1   3   68.13    4.73
   1   1   3   58.52    4.51
  -1   1  -3   56.76    6.22
   1   1   3   58.58    4.28
  -1   1  -3   54.49    4.21
  -1   1  -3   50.02    5.33
   1   1   3   69.35    6.21
  -1   1  -3   56.63    4.53
   1   1   3   60.39    4.27
  -3  -1  -3    3.86    1.94
   3  -1   3    3.80    0.33
   3  -1   3    2.53    0.69
  -3  -1  -3    2.92    0.94
   3  -1   3    2.86    0.41
   3  -1   3    4.08    3.95
  -3  -1  -3    4.63    1.95
  -3   1  -3    4.66    1.42
  -3   1  -3    3.43    1.30
  -3   1  -3    4.27    2.96
  -3   1  -3    4.20    1.13
   3   1   3    2.57    0.62
  -3   1  -3    3.41    2.82
   3   1   3    2.62    0.42
   3   1   3    0.95    2.71
  -5  -1  -3   -0.86    1.76
   5  -1   3    0.83    0.35
  -5  -1  -3    1.70    1.07
   5  -1   3    2.12    0.26
  -5  -1  -3    3.64    2.07
  -5   1  -3    1.05    2.54
   5   1   3    1.91    0.32
   5   1   3    1.62    0.47
  -5   1  -3    1.46    1.18
  -5   1  -3    2.37    2.82
   7  -1   3  155.83   10.77
   7  -1   3  145.19   10.60
  -7  -1  -3  163.44   13.00
  -7  -1  -3  143.23   12.73
  -7  -1  -3  136.98   11.51
   7   1   3  157.62   10.68
  -7   1  -3  141.05   13.15
   7   1   3  150.22   10.80
  -7   1  -3  141.32   11.73
  -7   1  -3  166.86   13.57
  -9  -1  -3   10.51    2.39
   9  -1   3    9.08    1.12
  -9  -1  -3    8.56    3.59
   9  -1   3    7.67    0.89
  -9  -1  -3    7.51    3.53
  -9   1  -3    5.95    2.16
   9   1   3    8.80    0.97
   9   1   3    9.49    1.22
  -9   1  -3   -0.27    3.87
  -9   1  -3   10.05    4.05
 -11  -1  -3    5.17    3.49
 -11  -1  -3    3.84    2.10
  11  -1   3    4.27    0.90
  11  -1   3    3.50    0.68
 -11  -1  -3    1.15    3.94
 -11   1  -3    7.48    4.85
 -11   1  -3    3.71    4.64
  11   1   3    2.82    0.87
  11   1   3    4.21    0.74
 -11   1  -3    0.12    1.74
  13  -1   3    6.57    0.94
 -13  -1  -3    7.53    4.67
 -13  -1  -3   13.48    5.53
 -13  -1  -3    6.41    2.84
  13  -1   3    4.23    1.08
 -13   1  -3   -3.88    5.39
  13   1   3    8.21    1.12
 -13   1  -3    0.68    5.82
 -13   1  -3    9.37    3.24
  13   1   3    6.74    1.27
 -15  -1  -3   17.90    8.86
  15  -1   3   16.46    1.69
  15  -1   3   13.06    2.00
 -15  -1  -3   12.35    4.24
 -15  -1  -3    4.08    6.60
  15   1   3   11.33    1.96
 -15   1  -3    5.58    4.14
 -15   1  -3   25.13    8.15
  15   1   3   12.69    1.59
 -15   1  -3   11.36    8.03
  17  -1   3   23.92    3.24
 -17  -1  -3   23.18    5.49
 -17  -1  -3   21.14   12.44
  17  -1   3   25.83    2.62
 -17  -1  -3   47.55   12.29
  17   1   3   24.16    2.90
 -17   1  -3   26.95    6.49
 -17   1  -3   23.47   12.97
 -17   1  -3   23.52   11.65
  17   1   3   25.99    3.20
  19  -1   3   -0.52    1.66
  19  -1   3   -1.97    1.72
 -19  -1  -3    8.79   14.36
 -19  -1  -3   -2.71    5.32
 -19  -1  -3  -27.26   12.51
  19   1   3    0.99    1.69
 -19   1  -3   -3.35   15.63
 -19   1  -3    9.48   24.13
  19   1   3   -1.41    1.61
 -19   1  -3    3.35    6.01
  20  -2  -3   53.02    5.68
 -20  -2   3   48.24    8.87
  20   2  -3   46.87    5.27
 -20   2   3   44.25    9.60
  20   2  -3   53.72    5.56
 -18  -2   3   -2.71    7.93
 -18  -2   3   -0.94    4.73
 -18  -2   3   -1.02    8.07
  18  -2  -3    3.90    2.21
  18   2  -3    0.29    1.76
 -18   2   3   12.41    5.81
 -16  -2   3   11.09    4.30
 -16  -2   3    5.78    5.30
  16  -2  -3    8.95    2.28
 -16  -2   3   10.63    5.02
  16   2  -3   11.08    2.18
  14  -2  -3   50.90    4.97
 -14  -2   3   55.68    6.76
 -14  -2   3   51.41    6.67
  14  -2  -3   48.07    4.75
 -14   2   3   47.68    6.74
  14   2  -3   44.48    4.58
 -14   2   3   51.94    4.08
 -14   2   3   49.12    5.87
 -12  -2   3   84.74    7.33
  12  -2  -3   81.00    6.67
  12  -2  -3   81.87    6.74
  12  -2  -3   91.66    7.28
  12   2  -3   75.37    6.39
 -12   2   3   77.08    7.34
  12   2  -3   85.35    6.90
 -12   2   3   75.61    8.20
 -12   2   3   80.52    6.09
 -12   2   3   72.62    7.43
 -12   2   3   85.29    7.30
 -10  -2   3    0.81    0.40
 -10  -2   3    0.66    1.49
  10  -2  -3    1.86    1.56
  10  -2  -3   -0.44    1.15
  10  -2  -3    1.57    1.03
  10   2  -3    0.19    0.76
 -10   2   3    0.64    3.14
 -10   2   3    1.22    1.63
 -10   2   3   -1.88    2.72
 -10   2   3    0.70    0.53
  10   2  -3    1.41    1.25
 -10   2   3    2.06    1.49
 -10   2   3    2.27    1.73
   8  -2  -3   17.15    2.98
   8  -2  -3   16.06    2.09
  -8  -2   3   13.60    1.17
   8  -2  -3   10.85    2.14
  -8  -2   3   16.47    2.14
  -8   2   3   18.36    2.29
   8   2  -3   14.06    2.15
  -8   2   3   14.98    1.67
  -8   2   3   12.85    1.33
  -8   2   3   13.27    1.75
   8   2  -3   12.93    1.73
  -8   2   3   12.16    3.00
  -8   2   3   14.35    2.67
   8   2  -3   18.21    2.63
  -6  -2   3   33.24    2.99
   6  -2  -3   36.75    3.78
  -6  -2   3   34.05    2.42
   6  -2  -3   29.49    3.35
  -6  -2   3   30.14    2.99
   6  -2  -3   33.02    3.07
   6  -2  -3   27.97    4.11
  -6   2   3   34.85    2.59
   6   2  -3   29.19    2.77
   6   2  -3   38.54    3.71
   6   2  -3   32.97    3.27
   6   2  -3   32.74    3.44
  -6   2   3   28.22    4.15
  -6   2   3   26.31    3.89
  -6   2   3   36.37    3.00
  -6   2   3   34.33    2.59
   4  -2  -3   19.49    2.24
   4  -2  -3   24.07    3.25
  -4  -2   3   21.87    1.99
   4  -2  -3   14.75    3.41
   4  -2  -3   23.02    2.75
  -4  -2   3   22.79    2.28
   4  -2  -3   19.24    2.71
   4  -2  -3   18.83    1.67
  -4  -2   3   21.29    1.67
   4  -2  -3   21.96    2.14
   4   2  -3   23.14    2.74
  -4   2   3   25.35    2.96
   4   2  -3   21.83    2.41
  -4   2   3   19.42    3.08
   4   2  -3   22.39    1.90
  -4   2   3   23.35    1.85
   4   2  -3   18.85    2.38
  -4   2   3   21.20    1.76
  -4   2   3   17.99    3.93
  -4   2   3   21.96    1.73
  -2  -2   3  215.14   15.74
  -2  -2   3  235.96   16.85
   2  -2  -3  222.83   16.45
   2  -2  -3  230.34   16.49
   2  -2  -3  229.01   15.56
   2  -2  -3  185.68   16.74
   2  -2  -3  196.54   16.09
   2   2  -3  223.93   15.75
   2   2  -3  214.54   16.18
  -2   2   3  221.92   15.43
   2   2  -3  236.64   15.18
   2   2  -3  185.99   15.74
  -2   2   3  208.68   15.39
  -2   2   3  255.16   16.22
  -2   2   3  208.19   15.49
  -2   2   3  213.81   15.32
   2   2  -3  205.76   15.37
   0  -2   3   44.94    3.41
   0  -2  -3   53.51    4.87
   0  -2  -3   48.08    3.64
   0  -2  -3   46.14    3.70
   0  -2  -3   53.21    4.89
   0  -2   3   43.42    4.56
   0  -2   3   46.78    3.95
   0  -2  -3   50.64    5.06
   0  -2  -3   58.07    4.30
   0  -2   3   44.79    5.87
   0   2  -3   59.81    5.51
   0   2  -3   47.96    3.91
   0   2  -3   43.18    5.14
   0   2   3   59.62    4.85
   0   2   3   50.30    3.58
   0   2   3   43.15    3.58
   0   2  -3   46.60    4.44
   0   2  -3   53.45    3.57
   0   2   3   48.05    3.70
   0   2   3   42.00    3.68
   0   2  -3   49.61    4.14
  -2  -2  -3   43.33    4.94
   2  -2   3   48.04    4.91
  -2  -2  -3   49.45    3.86
   2  -2   3   50.83    4.14
   2  -2   3   58.51    7.50
  -2  -2  -3   47.00    5.01
  -2  -2  -3   59.12    4.15
   2   2   3   49.97    3.95
   2   2   3   47.66    3.84
   2   2   3   57.80    3.84
   2   2   3   60.32    5.49
  -2   2  -3   42.32    5.92
  -2   2  -3   56.97    3.73
  -2   2  -3   46.04    6.22
  -2   2  -3   55.48    4.41
  -4  -2  -3  134.60   10.62
   4  -2   3  128.08    9.41
  -4  -2  -3  134.23    9.54
  -4  -2  -3  116.50   10.37
   4  -2   3  128.58   12.52
   4   2   3  126.65    9.13
  -4   2  -3  125.52   11.60
  -4   2  -3  129.62   10.12
   4   2   3  126.83    9.15
  -4   2  -3  124.96   11.73
   4   2   3  126.37    9.05
  -4   2  -3  121.90    9.46
   6  -2   3   31.89    2.49
   6  -2   3   31.58    2.33
  -6  -2  -3   33.18    3.26
  -6  -2  -3   36.09    5.24
  -6  -2  -3   35.51    5.06
  -6   2  -3   30.01    3.47
  -6   2  -3   35.22    2.99
  -6   2  -3   37.41    5.97
   6   2   3   29.94    2.56
  -6   2  -3   45.75    6.87
  -6   2  -3   32.14    3.80
   6   2   3   31.81    2.46
  -8  -2  -3   15.40    3.98
  -8  -2  -3   10.49    3.15
  -8  -2  -3   15.36    2.41
   8  -2   3   14.48    1.20
   8  -2   3   15.26    1.40
  -8   2  -3   18.28    3.13
  -8   2  -3   17.84    4.62
   8   2   3   14.31    1.48
  -8   2  -3   15.39    4.68
   8   2   3   12.52    1.29
 -10  -2  -3   39.70    6.52
 -10  -2  -3   37.73    6.32
 -10  -2  -3   29.77    4.08
  10  -2   3   34.65    2.81
  10  -2   3   30.41    2.56
 -10   2  -3   29.64    6.41
 -10   2  -3   38.69    4.11
  10   2   3   30.90    2.85
 -10   2  -3   32.35    6.57
 -10   2  -3   34.05    4.52
  10   2   3   36.15    2.71
 -12  -2  -3   45.99    7.46
 -12  -2  -3   44.69    4.96
  12  -2   3   34.55    3.01
 -12  -2  -3   42.28    7.79
  12  -2   3   36.59    3.29
  12   2   3   38.86    3.36
 -12   2  -3   37.20    5.26
 -12   2  -3   37.12    5.27
  12   2   3   42.81    3.20
 -12   2  -3   43.41    8.04
 -12   2  -3   53.86    8.89
 -14  -2  -3   14.42    4.25
  14  -2   3   21.33    1.99
  14  -2   3   18.61    2.47
 -14  -2  -3   15.31    6.36
 -14  -2  -3   24.60    7.56
 -14   2  -3   17.86    7.41
 -14   2  -3   13.06    4.24
 -14   2  -3   35.68    8.83
  14   2   3   25.02    2.63
  14   2   3   20.97    2.13
 -16  -2  -3    5.80    3.76
 -16  -2  -3  -11.48    8.54
 -16  -2  -3   -0.74    8.46
  16  -2   3    1.02    1.33
  16  -2   3   -0.59    0.89
 -16   2  -3    4.12    9.26
 -16   2  -3   -5.71    3.65
  16   2   3    0.22    1.33
 -16   2  -3   -7.43    8.52
 -18  -2  -3   34.05    6.56
  18  -2   3   30.25    3.74
 -18  -2  -3   25.67   12.81
  18  -2   3   29.32    2.87
 -18  -2  -3   24.05   12.16
 -18   2  -3   27.77    7.27
  18   2   3   25.94    3.59
 -18   2  -3   10.96   13.28
  18   2   3   26.70    3.31
 -18   2  -3   21.09   15.50
 -20  -2  -3   21.08   17.23
 -20  -2  -3   14.39    6.86
  20  -2   3   23.96    3.45
 -20  -2  -3    9.38   17.23
  20   2   3   22.09    2.95
  20   2   3   22.52    3.33
 -20   2  -3   24.86    7.92
  19  -3  -3   28.72    4.18
 -19  -3   3   25.77    6.60
 -19  -3   3   29.83   11.82
 -19  -3   3   31.86   10.75
  19   3  -3   41.34    4.18
  19   3  -3   38.31    4.33
 -19   3   3   22.70    7.94
 -17  -3   3   67.81   10.57
 -17  -3   3   72.99   10.72
  17  -3  -3   65.50    6.31
 -17  -3   3   72.10    8.55
  17   3  -3   64.75    5.86
 -17   3   3   61.44    8.96
  17   3  -3   68.51    6.04
 -15  -3   3   64.04    8.49
 -15  -3   3   71.23    7.86
  15  -3  -3   72.52    6.44
 -15  -3   3   78.38    8.81
 -15   3   3   73.89    8.02
  15   3  -3   65.96    6.03
  13  -3  -3   14.42    2.28
 -13  -3   3    8.77    2.85
 -13   3   3   15.53    3.28
  13   3  -3   13.05    2.17
 -13   3   3   13.31    1.62
  11  -3  -3  100.03    8.33
 -11  -3   3  104.55    8.78
  11  -3  -3  106.31    8.77
  11  -3  -3  104.13    8.31
  11   3  -3  110.04    8.55
  11   3  -3  102.88    8.04
 -11   3   3  107.25    7.76
   9  -3  -3  194.72   15.11
   9  -3  -3  204.97   14.48
   9  -3  -3  192.96   14.59
  -9  -3   3  195.82   14.57
   9   3  -3  177.95   14.46
   9   3  -3  202.68   14.14
  -9   3   3  202.72   13.91
  -9   3   3  178.50   14.55
  -7  -3   3  185.02   14.02
   7  -3  -3  174.38   15.04
   7  -3  -3  195.41   14.53
   7  -3  -3  188.34   14.13
  -7  -3   3  199.55   13.39
  -7  -3   3  185.21   14.08
  -7   3   3  200.93   14.12
   7   3  -3  196.46   14.21
   7   3  -3  198.25   13.78
  -7   3   3  179.26   13.59
   5  -3  -3   21.33    2.50
   5  -3  -3   20.39    4.03
   5  -3  -3   22.22    3.35
  -5  -3   3   23.93    1.75
  -5  -3   3   27.44    2.55
   5  -3  -3   22.43    2.07
   5  -3  -3   24.04    2.63
  -5  -3   3   22.99    2.31
  -5   3   3   23.53    1.97
   5   3  -3   22.39    2.05
   5   3  -3   26.84    3.00
   5   3  -3   23.80    2.50
  -5   3   3   25.70    2.49
  -5   3   3   22.59    1.94
   5   3  -3   26.20    2.87
   3  -3  -3  180.40   15.24
   3  -3  -3  191.66   14.61
   3  -3  -3  176.62   16.01
  -3  -3   3  195.50   14.83
   3  -3  -3  232.95   15.40
   3  -3  -3  234.45   15.38
  -3   3   3  198.76   14.51
  -3   3   3  219.75   14.72
  -3   3   3  222.69   14.76
   3   3  -3  186.35   14.38
  -3   3   3  197.50   14.43
   3   3  -3  205.29   15.16
  -3   3   3  202.10   14.40
   3   3  -3  212.63   14.89
   3   3  -3  190.52   14.82
   1  -3  -3  530.01   34.94
   1  -3  -3  497.43   34.11
   1  -3  -3  420.17   34.72
  -1  -3   3  504.77   35.95
   1  -3  -3  532.20   35.65
   1  -3  -3  548.48   34.69
  -1  -3   3  456.47   34.82
  -1  -3   3  455.30   34.37
  -1  -3   3  449.24   33.94
  -1   3   3  456.18   33.98
  -1   3   3  468.88   34.05
  -1   3   3  479.70   34.04
   1   3  -3  461.08   34.32
   1   3  -3  529.20   34.71
  -1   3   3  538.64   34.59
   1   3  -3  426.94   34.29
  -1  -3  -3   81.90    5.84
  -1  -3  -3   86.37    5.94
   1  -3   3   75.13    5.64
  -1  -3  -3   84.69    6.93
   1  -3   3   76.41    6.13
  -1  -3  -3   78.40    6.92
   1  -3   3   75.12    8.40
  -1   3  -3   74.51    6.05
  -1   3  -3   81.60    5.66
   1   3   3   85.85    6.93
   1   3   3   70.06    5.90
   1   3   3   85.44    5.82
  -1   3  -3   80.78    6.34
  -1   3  -3   82.06    7.66
   1   3   3   81.54    5.83
   1   3   3   78.41    5.78
   3  -3   3   17.63    2.70
   3  -3   3   16.63    1.93
  -3  -3  -3   14.01    1.95
   3  -3   3   22.08    2.39
  -3  -3  -3   16.93    2.99
   3  -3   3   17.20    5.99
  -3  -3  -3   21.65    3.29
   3  -3   3   18.63    1.36
   3   3   3   19.30    1.52
  -3   3  -3   21.83    4.31
  -3   3  -3   15.06    2.01
  -3   3  -3   19.19    1.94
   3   3   3   17.88    1.57
   3   3   3   17.39    1.56
  -3   3  -3   22.58    4.25
  -3   3  -3   19.09    1.52
  -5  -3  -3   81.47    7.73
   5  -3   3   83.68    6.07
  -5  -3  -3   80.82    6.68
  -5  -3  -3   84.93    7.86
  -5   3  -3   89.02    7.51
   5   3   3   81.33    6.23
   5   3   3   86.39    6.15
  -5   3  -3   74.28    8.89
  -5   3  -3   93.80    6.31
  -5   3  -3   78.23    9.26
  -5   3  -3   80.64    6.38
   5   3   3   88.99    6.18
   7  -3   3  140.86    9.90
  -7  -3  -3  129.47   11.77
  -7  -3  -3  155.31   12.18
   7  -3   3  129.54    9.99
  -7  -3  -3  146.95   10.82
  -7   3  -3  152.66   10.09
  -7   3  -3  131.72   13.08
  -7   3  -3  132.09    9.89
   7   3   3  136.69   10.02
   7   3   3  137.50   10.14
  -7   3  -3  138.71   13.45
  -7   3  -3  150.59   11.61
   9  -3   3  180.93   13.29
  -9  -3  -3  194.76   15.66
  -9  -3  -3  156.05   15.38
  -9  -3  -3  193.24   14.32
  -9   3  -3  205.03   13.27
  -9   3  -3  180.41   16.73
   9   3   3  188.31   13.43
  -9   3  -3  178.00   13.33
  -9   3  -3  177.33   14.83
  -9   3  -3  177.19   16.78
   9   3   3  192.18   13.29
  11  -3   3   22.09    1.99
 -11  -3  -3   20.74    3.53
 -11  -3  -3    8.37    4.39
 -11  -3  -3   21.96    5.43
  11   3   3   17.86    1.82
 -11   3  -3   22.47    2.63
  11   3   3   19.21    2.06
 -11   3  -3   15.43    3.53
 -11   3  -3   20.76    6.60
 -11   3  -3   24.59    6.58
 -11   3  -3   17.06    2.58
  13  -3   3   40.20    3.71
 -13  -3  -3   42.68    8.08
 -13  -3  -3   36.08    5.64
  13  -3   3   48.76    3.46
 -13  -3  -3   49.85    8.96
 -13   3  -3   54.78    7.05
 -13   3  -3   57.02    9.37
 -13   3  -3   39.01    9.03
  13   3   3   40.40    3.59
  13   3   3   46.65    3.93
 -15  -3  -3  149.70   17.21
  15  -3   3  136.34   10.15
 -15  -3  -3  147.51   12.81
  15  -3   3  149.16   10.61
 -15  -3  -3  113.97   16.05
 -15   3  -3  157.16   18.30
 -15   3  -3  124.24   13.31
 -15   3  -3  129.98   17.18
  15   3   3  138.16   10.68
  15   3   3  144.28   10.57
 -17  -3  -3   56.53   13.92
  17  -3   3   74.93    6.05
 -17  -3  -3   69.92    9.10
  17  -3   3   68.69    5.35
 -17  -3  -3   60.04   13.11
  17   3   3   66.04    6.04
 -17   3  -3   98.57   15.03
 -17   3  -3  100.72   15.20
  17   3   3   69.65    5.73
 -17   3  -3   56.59    9.17
  19  -3   3    1.63    1.99
 -19  -3  -3   -0.67   12.74
 -19  -3  -3   10.52   13.10
 -19  -3  -3   -7.53    4.95
  19   3   3    1.03    1.81
 -19   3  -3   -0.93    6.19
  19   3   3    0.81    1.73
 -20  -4   3   49.22   14.59
 -20  -4   3   52.05   13.60
 -20  -4   3   42.02    8.14
  20  -4  -3   38.18    4.82
 -20   4   3   32.25    9.65
  20   4  -3   35.54    4.93
  20   4  -3   42.49    4.69
 -18  -4   3   13.15    7.85
  18  -4  -3   15.64    3.15
 -18  -4   3   28.19    5.99
 -18  -4   3   -0.31    8.43
  18   4  -3   12.38    2.39
  18   4  -3   15.01    2.90
 -18   4   3   17.51    6.68
 -16  -4   3   -1.57    4.98
 -16  -4   3    7.20    7.08
  16  -4  -3    7.88    2.32
 -16  -4   3    6.83    4.22
  16   4  -3    5.23    1.83
 -16   4   3   -4.68    4.66
 -16   4   3    7.23    1.68
  16   4  -3    4.42    1.64
  14  -4  -3  170.66   12.86
  14  -4  -3  171.93   12.57
 -14  -4   3  160.53   13.86
 -14   4   3  175.79   14.16
  14   4  -3  154.75   12.49
  12  -4  -3  182.70   14.81
 -12  -4   3  195.71   15.52
  12  -4  -3  217.39   15.36
  12  -4  -3  204.22   14.98
 -12   4   3  202.46   15.80
 -12   4   3  193.43   14.42
  12   4  -3  203.26   14.69
 -10  -4   3   96.01    7.86
  10  -4  -3   96.67    7.63
  10  -4  -3   97.81    7.73
  10  -4  -3   92.43    8.14
 -10   4   3   98.78    7.00
 -10   4   3   90.68    8.20
  10   4  -3   85.06    7.14
   8  -4  -3   53.87    6.20
   8  -4  -3   56.01    5.03
   8  -4  -3   58.36    5.56
  -8  -4   3   59.18    5.14
  -8  -4   3   54.06    4.87
  -8   4   3   57.07    4.43
   8   4  -3   63.33    4.62
   8   4  -3   60.62    5.13
  -6  -4   3  495.33   33.41
   6  -4  -3  427.49   33.43
   6  -4  -3  470.10   34.04
  -6  -4   3  489.95   33.40
   6  -4  -3  413.14   34.71
  -6   4   3  478.49   32.96
   6   4  -3  424.22   33.38
   6   4  -3  485.66   33.54
  -6   4   3  495.96   32.96
  -6   4   3  474.56   33.39
   6   4  -3  476.11   33.00
   4  -4  -3  376.66   25.90
  -4  -4   3  360.67   26.04
  -4  -4   3  362.80   25.39
   4  -4  -3  329.75   25.51
   4  -4  -3  394.29   26.30
   4  -4  -3  320.95   27.43
   4  -4  -3  324.55   26.54
   4  -4  -3  418.86   26.35
   4   4  -3  368.48   26.12
   4   4  -3  413.92   26.14
  -4   4   3  345.08   25.60
   4   4  -3  336.89   25.56
  -2  -4   3  177.60   13.38
   2  -4  -3  185.30   13.06
   2  -4  -3  212.46   14.93
   2  -4  -3  165.04   12.76
   2  -4  -3  186.34   13.68
   2  -4  -3  181.96   13.62
   2   4  -3  185.56   12.70
   2   4  -3  184.79   13.35
   2   4  -3  163.65   13.46
  -2   4   3  187.52   13.01
   2   4  -3  189.30   13.30
   2   4  -3  184.94   12.84
   2   4  -3  185.26   12.87
  -2   4   3  169.88   12.90
  -2   4   3  169.66   12.93
   0  -4  -3  101.39    6.96
   0  -4   3   91.75    6.76
   0  -4   3   92.85    7.34
   0  -4  -3   95.97    6.96
   0  -4  -3   98.26    7.88
   0  -4   3   94.45    7.90
   0  -4   3   98.86    6.75
   0   4   3   87.16    6.94
   0   4  -3  112.04    7.28
   0   4  -3   97.21    7.41
   0   4  -3   90.71    7.23
   0   4   3   88.16    6.99
   0   4   3   95.59    6.96
  -2  -4  -3  361.40   26.99
   2  -4   3  375.36   27.17
   2  -4   3  349.64   27.40
  -2  -4  -3  384.80   26.64
  -2  -4  -3  416.18   27.97
  -2  -4  -3  397.71   27.96
  -2   4  -3  364.43   27.03
   2   4   3  360.95   26.83
  -2   4  -3  426.92   26.66
  -2   4  -3  377.48   28.51
   2   4   3  370.57   26.81
  -4  -4  -3  432.26   31.67
   4  -4   3  426.75   30.07
   4  -4   3  413.30   30.66
   4  -4   3  459.24   30.46
  -4  -4  -3  459.24   30.72
   4  -4   3  434.54   30.80
  -4  -4  -3  420.97   31.58
   4   4   3  387.69   30.31
  -4   4  -3  458.51   32.47
  -4   4  -3  426.33   32.36
  -4   4  -3  423.43   30.28
   4   4   3  422.56   30.29
   6  -4   3  109.14    7.70
  -6  -4  -3   98.72    8.38
  -6  -4  -3  108.08    9.51
   6  -4   3   93.23    7.56
  -6  -4  -3  108.12    9.48
  -6   4  -3  124.61   11.01
  -6   4  -3  108.09   10.98
   6   4   3  109.30    7.88
   6   4   3  105.86    7.89
   6   4   3  115.96    7.76
   6   4   3  114.77    7.81
  -8  -4  -3    5.18    2.92
   8  -4   3    4.20    0.71
  -8  -4  -3    4.91    1.67
  -8  -4  -3    5.19    3.19
  -8   4  -3   -0.65    3.95
  -8   4  -3    6.39    4.87
   8   4   3    4.90    0.74
   8   4   3    2.92    0.77
   8   4   3    4.90    1.22
  -8   4  -3    3.72    2.43
 -10  -4  -3  136.06   12.60
 -10  -4  -3  138.51   12.73
 -10  -4  -3  137.22   11.04
  10  -4   3  135.26    9.91
  10   4   3  135.09   10.07
 -10   4  -3  147.11   12.03
 -10   4  -3  109.17   13.55
  10   4   3  148.92   10.53
  10   4   3  130.91    9.90
 -10   4  -3  138.13   14.08
 -12  -4  -3  306.10   25.41
 -12  -4  -3  339.54   25.57
 -12  -4  -3  282.95   24.66
  12  -4   3  317.87   22.08
 -12   4  -3  309.28   25.82
 -12   4  -3  292.50   25.97
  12   4   3  316.98   22.05
 -12   4  -3  295.90   24.09
  14  -4   3   58.32    4.22
 -14  -4  -3   55.54   10.82
 -14  -4  -3   50.18    9.54
 -14  -4  -3   51.37    6.85
  14  -4   3   53.17    4.50
 -14   4  -3   57.95    8.11
  14   4   3   51.33    4.81
  14   4   3   53.67    4.43
 -14   4  -3   60.34   10.13
 -14   4  -3   55.33   10.95
 -16  -4  -3   -9.81    7.85
 -16  -4  -3   -9.10    7.25
  16  -4   3    6.84    1.69
 -16  -4  -3    6.96    4.12
  16  -4   3    4.94    1.01
 -16   4  -3   -5.40    8.85
  16   4   3    1.79    1.35
  16   4   3    1.46    1.48
 -16   4  -3   13.42   10.03
 -16   4  -3    2.71    5.07
 -18  -4  -3   60.16   14.04
 -18  -4  -3   90.82    9.96
  18  -4   3   71.81    6.45
 -18  -4  -3   62.86   15.21
 -18   4  -3   55.79   10.45
  18   4   3   72.12    6.53
  18   4   3   81.18    6.30
  19  -5  -3   39.83    4.75
 -19  -5   3   29.86    7.17
 -19  -5   3   43.30   12.23
 -19  -5   3   28.22   10.42
  19   5  -3   32.40    4.27
  19   5  -3   36.69    4.27
 -19   5   3   31.41    9.11
  17  -5  -3  194.93   15.18
 -17  -5   3  192.68   18.89
 -17  -5   3  167.68   19.34
 -17  -5   3  189.44   16.92
  17   5  -3  211.70   15.04
 -17   5   3  180.14   18.15
 -17   5   3  203.80   14.74
  17   5  -3  206.21   14.87
 -15  -5   3   68.07    9.70
 -15  -5   3   70.06   10.60
  15  -5  -3   73.55    6.72
 -15  -5   3   70.03    8.15
 -15   5   3   71.36    5.97
  15   5  -3   75.87    6.10
  15   5  -3   71.15    6.19
 -15   5   3   73.92    9.01
  13  -5  -3   -1.11    1.66
  13  -5  -3   -1.28    1.54
  13  -5  -3    2.69    1.78
 -13  -5   3   -2.99    2.47
  13   5  -3   -2.80    0.99
 -13   5   3    2.14    1.15
  13   5  -3   -0.73    1.13
  11  -5  -3   81.67    7.47
 -11  -5   3   93.34    7.53
  11  -5  -3   79.97    7.00
  11  -5  -3   85.56    7.04
  11   5  -3   79.78    6.52
 -11   5   3   86.88    6.40
 -11   5   3   81.70    8.03
  11   5  -3   84.90    6.52
  -9  -5   3  277.96   20.19
   9  -5  -3  290.05   20.06
   9  -5  -3  293.51   20.26
   9  -5  -3  270.10   20.85
   9   5  -3  234.84   19.45
   9   5  -3  264.83   19.51
  -9   5   3  280.19   20.46
   7  -5  -3  474.21   34.00
   7  -5  -3  451.94   33.44
   7  -5  -3  420.94   34.74
  -7  -5   3  463.11   33.40
  -7  -5   3  472.27   33.30
   7   5  -3  500.75   33.94
  -7   5   3  492.09   32.90
   7   5  -3  429.13   33.39
   7   5  -3  459.66   32.91
  -7   5   3  487.11   32.91
   5  -5  -3   -0.54    1.10
   5  -5  -3    1.41    1.63
  -5  -5   3    1.62    0.85
   5  -5  -3    5.31    1.84
   5  -5  -3    0.68    2.48
  -5  -5   3   -0.34    1.00
   5  -5  -3    0.11    1.81
   5  -5  -3    1.37    1.25
  -5   5   3    2.33    0.56
   5   5  -3    1.81    0.55
   5   5  -3    2.29    1.14
   5   5  -3    2.28    0.55
   5   5  -3   -2.46    1.73
  -5   5   3    1.70    0.56
   3  -5  -3  252.90   18.46
   3  -5  -3  275.12   18.95
   3  -5  -3  256.44   18.37
   3  -5  -3  258.14   19.09
   3  -5  -3  257.96   18.91
   3  -5  -3  269.10   20.28
  -3  -5   3  252.52   18.76
   3   5  -3  281.19   18.16
  -3   5   3  254.14   18.27
   3   5  -3  228.08   18.57
   3   5  -3  272.98   18.07
  -3   5   3  233.18   18.24
  -3   5   3  244.74   18.36
   3   5  -3  263.97   18.75
   1  -5  -3  528.87   35.38
  -1  -5   3  501.10   35.90
  -1  -5   3  455.98   35.20
   1  -5  -3  525.93   35.49
   1  -5  -3  487.56   36.16
   1  -5  -3  508.50   36.22
  -1   5   3  477.63   35.43
   1   5  -3  534.37   35.80
  -1   5   3  478.73   35.43
  -1   5   3  510.51   35.49
   1   5  -3  500.93   35.20
   1   5  -3  509.92   35.24
   1   5  -3  519.07   35.34
   1  -5   3  828.71   58.09
  -1  -5  -3  848.29   58.70
  -1  -5  -3  945.08   58.86
  -1  -5  -3  789.14   57.79
  -1  -5  -3  785.18   57.59
   1  -5   3  858.05   58.45
   1   5   3  756.01   57.71
   1   5   3  763.20   57.72
   1   5   3  835.34   57.73
  -3  -5  -3    8.43    2.41
   3  -5   3    4.99    1.61
   3  -5   3    3.05    0.99
  -3  -5  -3    5.11    2.19
  -3  -5  -3    5.86    1.16
  -3   5  -3   10.26    3.16
   3   5   3    5.41    0.87
   3   5   3    6.10    0.97
  -3   5  -3    6.80    0.73
   3   5   3    5.98    0.86
   5  -5   3  274.00   18.30
  -5  -5  -3  267.01   20.17
  -5  -5  -3  279.82   19.08
  -5  -5  -3  262.63   20.08
  -5   5  -3  257.29   20.60
   5   5   3  253.73   18.64
   5   5   3  229.44   18.50
   5   5   3  264.66   18.61
  -7  -5  -3  268.81   18.70
  -7  -5  -3  241.02   19.65
  -7  -5  -3  231.83   19.68
   7   5   3  263.42   17.74
   7   5   3  264.26   17.81
   7   5   3  253.76   18.01
   7   5   3  246.73   17.88
  -7   5  -3  262.34   20.56
   7   5   3  234.82   17.95
  -7   5  -3  230.49   20.24
  -9  -5  -3  272.23   22.21
  -9  -5  -3  280.90   22.18
   9  -5   3  256.30   19.72
  -9  -5  -3  289.65   20.80
  -9   5  -3  285.31   22.84
  -9   5  -3  286.88   21.94
  -9   5  -3  284.39   22.70
   9   5   3  303.62   19.99
   9   5   3  254.98   19.79
   9   5   3  279.27   19.97
 -11  -5  -3   15.17    4.78
  11  -5   3   20.77    1.94
 -11  -5  -3   18.40    3.24
 -11  -5  -3   17.18    4.79
 -11   5  -3   11.54    3.67
  11   5   3   16.39    1.87
 -11   5  -3   24.15    6.53
 -11   5  -3   21.22    6.32
  11   5   3   20.28    3.03
  11   5   3   18.37    2.03
 -13  -5  -3   85.28    8.11
 -13  -5  -3   85.07   12.60
 -13  -5  -3   81.30   11.55
  13  -5   3   84.97    6.37
 -13   5  -3   82.12   10.24
 -13   5  -3   87.95   11.14
  13   5   3   81.38    6.63
  13   5   3   77.04    6.40
 -13   5  -3   86.60   12.47
  15  -5   3  161.18   12.09
 -15  -5  -3  151.78   17.92
 -15  -5  -3  155.05   13.95
 -15  -5  -3  159.91   18.66
  15  -5   3  162.32   11.63
 -15   5  -3  163.57   15.59
  15   5   3  169.26   12.34
 -15   5  -3  167.15   17.62
 -15   5  -3  164.33   17.75
  15   5   3  161.87   12.02
 -17  -5  -3   59.77    7.97
  17  -5   3   60.05    5.42
 -17  -5  -3   52.19   12.75
 -17  -5  -3   49.53   12.56
  17   5   3   54.47    5.53
 -17   5  -3   60.77   10.35
  17   5   3   66.81    5.30
 -19  -5  -3   14.33    6.19
  19  -5   3   18.78    3.06
 -19  -5  -3   37.96   13.84
 -19  -5  -3   18.72   13.72
  19   5   3   19.89    2.91
 -19   5  -3   21.42    8.44
  19   5   3   17.75    3.12
  18  -6  -3   31.90    4.30
 -18  -6   3   25.25    6.31
 -18  -6   3   13.75    8.99
 -18  -6   3   39.88    9.71
  18   6  -3   31.88    3.88
  18   6  -3   28.78    3.99
 -18   6   3   25.74    8.82
 -16  -6   3   13.64    5.98
 -16  -6   3   10.97    6.57
 -16  -6   3   14.07    4.90
  16  -6  -3   15.86    3.15
 -16   6   3   12.61    2.21
  16   6  -3   13.07    2.46
 -16   6   3   26.51    7.09
  16   6  -3   14.42    2.35
  14  -6  -3  206.32   14.50
 -14  -6   3  201.21   16.16
  14  -6  -3  195.24   15.02
 -14   6   3  194.42   16.81
  14   6  -3  181.85   14.52
  14   6  -3  198.24   14.64
 -14   6   3  193.70   14.42
  12  -6  -3  120.95    9.13
 -12  -6   3  109.77    9.73
  12  -6  -3  112.86    9.23
  12  -6  -3  108.12    8.61
 -12   6   3   96.58    8.19
  12   6  -3   91.47    8.34
  12   6  -3  118.97    8.41
 -12   6   3  120.74   10.49
  10  -6  -3   18.01    2.82
 -10  -6   3   11.10    2.36
  10  -6  -3   19.04    3.46
  10  -6  -3   14.45    2.32
 -10   6   3   19.07    1.80
  10   6  -3   16.02    1.84
  10   6  -3   13.94    1.90
  -8  -6   3   19.45    2.41
   8  -6  -3   10.80    3.62
   8  -6  -3   13.65    2.40
   8  -6  -3   13.96    3.11
  -8  -6   3   13.05    2.31
   8   6  -3   15.29    1.72
  -8   6   3   14.69    1.61
  -8   6   3   14.94    1.62
   8   6  -3   16.87    1.72
   6  -6  -3  151.89   12.07
  -6  -6   3  151.18   11.04
   6  -6  -3  158.26   11.31
  -6  -6   3  148.58   11.12
   6  -6  -3  112.86   12.79
   6   6  -3  122.68   10.50
  -6   6   3  163.27   10.60
   6   6  -3  146.65   11.56
   6   6  -3  154.13   10.41
   6   6  -3  141.28   10.50
  -6   6   3  143.52   10.53
  -4  -6   3  242.08   17.91
   4  -6  -3  239.38   17.97
  -4  -6   3  217.29   17.10
   4  -6  -3  238.08   17.95
   4  -6  -3  269.08   19.83
   4  -6  -3  259.06   18.44
  -4   6   3  229.81   17.36
  -4   6   3  236.58   17.38
   4   6  -3  254.51   17.36
   4   6  -3  244.94   17.96
   4   6  -3  266.35   17.21
  -4   6   3  239.32   17.54
   2  -6  -3  102.85    7.66
  -2  -6   3   97.93    8.10
   2  -6  -3  108.20    8.39
   2  -6  -3   95.62    8.28
  -2   6   3   89.04    7.59
  -2   6   3  103.76    7.53
   2   6  -3   99.11    7.30
  -2   6   3   98.71    7.53
   2   6  -3  116.42    7.49
   2   6  -3  110.48    7.37
   2   6  -3  104.91    8.07
   0  -6  -3    4.55    0.85
   0  -6  -3    3.08    1.65
   0  -6   3    4.02    1.13
   0  -6  -3    2.66    0.70
   0  -6  -3    5.02    1.85
   0  -6   3    6.90    0.66
   0   6   3    4.84    0.88
   0   6   3    4.00    0.78
   0   6   3    4.54    0.80
   0   6  -3    5.45    1.49
   0   6  -3    5.12    0.67
  -2  -6  -3  378.26   25.12
  -2  -6  -3  322.40   25.96
   2  -6   3  361.94   25.33
  -2  -6  -3  371.05   26.12
   2  -6   3  350.36   25.58
   2   6   3  343.06   24.90
   2   6   3  328.49   24.85
   2   6   3  343.76   24.88
  -2   6  -3  361.42   24.72
   4  -6   3  464.45   37.46
  -4  -6  -3  573.41   39.35
   4  -6   3  545.44   38.20
  -4  -6  -3  561.70   38.15
  -4  -6  -3  567.30   39.28
  -4   6  -3  571.20   37.61
   4   6   3  547.29   37.76
   4   6   3  472.26   37.72
   4   6   3  530.14   37.79
  -6  -6  -3   26.35    3.11
  -6  -6  -3   24.56    4.21
  -6  -6  -3   26.17    4.46
   6  -6   3   26.10    2.01
   6  -6   3   22.09    2.88
   6   6   3   24.65    2.22
   6   6   3   26.07    2.45
   6   6   3   25.22    2.31
  -6   6  -3   29.14    5.35
  -8  -6  -3   63.70    5.78
   8  -6   3   66.54    4.64
  -8  -6  -3   57.29    6.96
  -8  -6  -3   61.80    7.14
   8   6   3   57.89    4.85
   8   6   3   65.26    4.96
  -8   6  -3   60.40    7.99
   8   6   3   60.70    4.76
   8   6   3   58.76    4.82
   8   6   3   60.68    4.88
 -10  -6  -3  119.92   11.96
 -10  -6  -3  117.40    9.81
  10  -6   3  105.93    8.54
 -10  -6  -3  119.75   11.70
  10   6   3  117.79    8.80
  10   6   3  118.12    8.69
  10   6   3  119.97    8.87
  10   6   3  121.86    8.97
 -10   6  -3  126.82   12.00
 -12  -6  -3   95.88   12.31
  12  -6   3  100.91    7.11
 -12  -6  -3   86.80   11.41
 -12  -6  -3   95.11    8.79
  12   6   3   95.36    7.38
  12   6   3   85.21    7.30
 -12   6  -3   96.24   11.64
 -14  -6  -3   17.68    8.22
 -14  -6  -3   23.74    4.86
  14  -6   3   18.03    2.41
 -14  -6  -3   21.29    7.08
  14   6   3   24.86    2.65
  14   6   3   21.18    2.82
 -14   6  -3   29.49    7.88
  16  -6   3    0.16    1.57
 -16  -6  -3    0.83    8.32
 -16  -6  -3   -3.24    7.46
 -16  -6  -3   -2.38    3.56
  16   6   3   -0.23    1.38
  16   6   3    2.16    1.68
  18  -6   3   26.90    3.21
 -18  -6  -3   21.28    6.03
 -18  -6  -3   20.71   12.92
 -18  -6  -3    7.29   10.80
  18   6   3   19.23    3.07
  18   6   3   23.60    3.09
 -19  -7   3   35.15    7.94
 -19  -7   3   47.11   13.28
 -19  -7   3   57.71   12.55
  19  -7  -3   57.58    6.35
  19   7  -3   48.16    5.78
  19   7  -3   51.49    5.31
  17  -7  -3  109.60    9.21
 -17  -7   3  103.23   14.43
 -17  -7   3   91.29   13.62
 -17  -7   3   99.78   11.45
 -17   7   3  103.75    8.46
  17   7  -3  101.15    8.39
  17   7  -3  106.20    8.79
 -15  -7   3   59.70    7.72
  15  -7  -3   71.22    6.42
  15   7  -3   60.51    5.52
 -15   7   3   58.19    5.45
  15   7  -3   65.82    5.74
  13  -7  -3    2.56    1.86
  13  -7  -3   -0.33    2.02
 -13  -7   3    2.98    2.83
  13  -7  -3    3.97    1.74
  13   7  -3    2.09    1.38
 -13   7   3    4.82    1.40
  13   7  -3    2.76    1.36
  11  -7  -3   38.52    4.59
 -11  -7   3   38.67    5.12
  11  -7  -3   38.03    5.18
  11  -7  -3   47.84    4.47
  11   7  -3   39.33    3.67
 -11   7   3   46.99    3.72
  11   7  -3   40.43    3.79
   9  -7  -3  207.37   17.61
   9  -7  -3  213.53   16.37
  -9  -7   3  225.33   16.66
  -9  -7   3  227.33   16.25
   9  -7  -3  222.75   16.79
   9   7  -3  203.74   15.60
   9   7  -3  225.65   15.83
  -9   7   3  208.41   15.73
   9   7  -3  231.18   15.82
   7  -7  -3  144.89    9.80
  -7  -7   3  130.48    9.43
  -7  -7   3  123.92    9.59
   7  -7  -3   94.23   11.32
   7  -7  -3  127.94   10.62
   7   7  -3  124.31    8.74
  -7   7   3  112.40    8.84
   7   7  -3  107.99    8.83
  -7   7   3  121.89    8.90
   7   7  -3  120.86    8.90
   5  -7  -3   21.50    2.85
   5  -7  -3   14.79    4.26
   5  -7  -3   17.91    3.16
  -5  -7   3   20.52    2.46
  -5  -7   3   22.11    2.65
   5  -7  -3   24.92    3.04
   5   7  -3   13.46    1.69
   5   7  -3   20.20    1.73
  -5   7   3   18.52    2.17
  -5   7   3   17.61    1.79
   5   7  -3   21.85    3.17
   5   7  -3   18.10    1.63
  -5   7   3   15.49    1.73
   3  -7  -3  174.90   12.24
   3  -7  -3  157.84   11.99
  -3  -7   3  149.84   11.79
   3  -7  -3  180.56   13.88
   3  -7  -3  155.19   11.96
  -3   7   3  140.02   11.19
  -3   7   3  143.26   11.32
   3   7  -3  146.14   11.79
  -3   7   3  144.60   11.18
   3   7  -3  167.90   11.00
   3   7  -3  155.43   11.07
   1  -7  -3  286.00   21.74
  -1  -7   3  278.82   21.37
   1  -7  -3  297.21   20.89
   1  -7  -3  306.03   21.87
   1  -7  -3  272.16   20.85
  -1   7   3  317.68   20.86
  -1   7   3  284.79   20.87
   1   7  -3  289.86   20.62
  -1   7   3  309.91   20.96
   1   7  -3  288.21   21.25
  -1  -7  -3  275.60   19.46
  -1  -7  -3  217.70   18.21
  -1  -7  -3  233.36   19.18
   1  -7   3  262.21   18.64
  -1  -7  -3  261.26   17.97
  -1   7  -3  259.98   17.90
  -1   7  -3  257.58   17.99
   1   7   3  264.68   18.18
   1   7   3  253.75   18.08
  -3  -7  -3   16.27    3.32
  -3  -7  -3   13.91    3.21
   3  -7   3   17.45    2.94
  -3  -7  -3   17.18    2.11
   3  -7   3   13.84    2.20
   3   7   3   17.32    1.73
   3   7   3   14.83    1.65
  -3   7  -3   17.55    1.57
   3   7   3   16.31    1.68
   5  -7   3   96.70    8.64
   5  -7   3  122.34    9.21
  -5  -7  -3  119.73    9.08
  -5  -7  -3  132.05   10.53
  -5  -7  -3  103.57   10.31
  -5   7  -3  129.00    8.46
   5   7   3  110.38    8.49
   5   7   3  120.08    8.56
   5   7   3  116.26    8.61
   7  -7   3  204.38   15.34
   7  -7   3  214.68   14.47
  -7  -7  -3  184.93   16.61
  -7  -7  -3  214.37   16.92
  -7  -7  -3  203.48   15.49
   7   7   3  195.78   14.64
   7   7   3  208.78   14.79
   7   7   3  200.41   14.69
  -9  -7  -3  119.08   12.69
  -9  -7  -3  147.38   11.01
  -9  -7  -3  112.30   12.09
   9  -7   3  137.13    9.68
   9   7   3  142.65    9.88
   9   7   3  130.69    9.95
   9   7   3  131.33    9.84
 -11  -7  -3    9.60    3.30
 -11  -7  -3    6.42    5.29
 -11  -7  -3    0.55    4.85
  11  -7   3    8.81    1.21
  11   7   3    6.62    1.49
  11   7   3    7.62    1.59
  11   7   3   10.24    1.68
  11   7   3    7.29    1.22
  11   7   3   10.46    1.67
 -13  -7  -3   42.59    5.87
 -13  -7  -3   31.93    8.35
  13  -7   3   33.98    3.25
 -13  -7  -3   38.89    8.32
  13   7   3   44.26    4.04
  13   7   3   36.19    3.73
  13   7   3   36.34    3.75
  13   7   3   40.03    3.67
  13   7   3   33.84    3.48
 -15  -7  -3   73.76   12.94
  15  -7   3   80.80    6.25
 -15  -7  -3   90.57   13.35
 -15  -7  -3   73.95    8.64
  15   7   3   65.82    6.27
  15   7   3   78.42    6.51
  15   7   3   79.05    6.57
  17  -7   3   53.75    5.37
 -17  -7  -3   59.09    8.57
 -17  -7  -3   76.24   14.23
 -17  -7  -3   45.87   13.39
  17   7   3   57.32    5.40
  17   7   3   60.06    5.71
  17   7   3   62.23    5.68
 -18  -8   3  -11.60    7.95
  18  -8  -3   -1.75    2.59
 -18  -8   3   -1.99    5.54
 -18  -8   3   -5.21    8.97
  18   8  -3    6.13    2.41
  18   8  -3    0.26    1.88
  18   8  -3    1.53    2.46
 -18   8   3    0.12    2.14
 -16  -8   3   -7.53    5.28
 -16  -8   3    0.21    6.62
  16  -8  -3    0.07    2.53
 -16  -8   3    3.79    4.55
  16   8  -3   -1.37    1.84
 -16   8   3    1.04    1.71
  16   8  -3    1.17    1.63
  16   8  -3    2.00    1.93
  14  -8  -3   15.41    3.17
 -14  -8   3   12.92    4.07
  14   8  -3   18.83    2.74
  14   8  -3   10.48    2.05
 -14   8   3   19.05    2.50
  14   8  -3   16.51    2.52
  12  -8  -3  150.62   10.72
 -12  -8   3  132.32   11.81
  12  -8  -3  142.87   11.23
  12  -8  -3  147.56   11.11
 -12   8   3  127.94   10.32
  12   8  -3  128.74   10.45
  12   8  -3  135.04   10.37
  12   8  -3  132.73   10.46
 -10  -8   3   22.85    3.03
  10  -8  -3   27.24    3.79
  10  -8  -3   26.43    3.33
 -10  -8   3   18.94    3.51
  10  -8  -3   20.02    4.31
  10   8  -3   24.67    2.48
  10   8  -3   17.61    2.23
 -10   8   3   22.69    2.40
  10   8  -3   21.45    2.49
   8  -8  -3   83.99    8.61
   8  -8  -3   70.13    9.54
   8  -8  -3   87.65    7.34
  -8  -8   3   80.01    7.37
   8   8  -3   89.08    6.47
  -8   8   3   90.85    6.64
   8   8  -3   90.06    6.64
  -8   8   3   82.16    6.55
   8   8  -3   93.37    6.64
   6  -8  -3   76.99    7.41
  -6  -8   3   71.47    6.12
   6  -8  -3   68.76    6.37
   6  -8  -3   63.70    8.72
  -6  -8   3   60.60    6.04
   6  -8  -3   73.13    6.35
   6   8  -3   73.62    5.31
   6   8  -3   66.80    5.39
  -6   8   3   67.61    5.77
  -6   8   3   68.44    5.42
   6   8  -3   79.21    5.52
  -6   8   3   79.96    5.54
   4  -8  -3   65.04    7.74
   4  -8  -3   47.16    5.59
   4  -8  -3   70.69    6.02
   4  -8  -3   61.67    6.16
  -4  -8   3   62.49    5.62
   4   8  -3   66.65    4.87
  -4   8   3   58.31    4.84
  -4   8   3   63.70    5.10
   4   8  -3   66.50    4.67
  -4   8   3   61.11    4.88
   4   8  -3   67.06    4.79
  -2  -8   3   10.31    2.02
   2  -8  -3   10.52    2.65
   2  -8  -3    9.82    1.26
   2  -8  -3    7.81    2.20
  -2   8   3    6.77    1.08
  -2   8   3    7.86    1.15
  -2   8   3    9.15    1.45
   2   8  -3    9.50    0.99
   2   8  -3    7.94    1.07
   0  -8  -3   11.31    1.48
   0  -8  -3   18.18    3.19
   0  -8  -3   13.46    1.66
   0  -8   3   14.47    2.30
   0  -8  -3   12.69    2.89
   0   8   3   14.39    1.40
   0   8   3   10.72    1.38
   0   8   3   10.64    1.50
   0   8  -3    8.76    1.22
   0   8  -3   12.48    1.15
  -2  -8  -3   23.54    2.53
   2  -8   3   19.32    2.87
   2  -8   3   22.77    1.71
  -2  -8  -3   22.05    4.15
  -2  -8  -3   19.88    3.73
  -2   8  -3   22.93    1.89
   2   8   3   23.47    2.25
   2   8   3   22.65    2.20
   2   8   3   22.00    2.07
  -2   8  -3   26.48    2.07
   4  -8   3   59.44    4.97
  -4  -8  -3   71.92    5.87
  -4  -8  -3   56.89    6.85
  -4  -8  -3   71.10    7.30
   4  -8   3   70.81    6.12
   4  -8   3   69.26    6.63
   4   8   3   74.16    5.46
  -4   8  -3   77.20    5.31
   4   8   3   76.22    5.41
   4   8   3   69.90    5.27
  -6  -8  -3  106.84   10.99
  -6  -8  -3  130.23   11.30
   6  -8   3  117.62    9.76
  -6  -8  -3  127.62    9.76
   6   8   3  124.77    8.93
   6   8   3  122.20    9.11
   6   8   3  122.65    9.06
  -8  -8  -3    0.82    3.85
   8  -8   3    5.65    1.99
   8  -8   3    2.91    0.76
  -8  -8  -3    1.49    3.28
  -8  -8  -3    3.25    1.98
   8   8   3    3.55    0.96
   8   8   3    3.60    0.94
   8   8   3    3.33    0.87
 -10  -8  -3   79.63   10.76
 -10  -8  -3   91.62    8.60
  10  -8   3  104.70    6.76
 -10  -8  -3   74.18   10.49
  10   8   3   85.30    7.01
  10   8   3   80.64    7.07
  10   8   3   92.95    6.82
 -12  -8  -3   31.10    8.20
  12  -8   3   26.50    2.69
 -12  -8  -3   26.60    5.06
 -12  -8  -3   32.01    7.78
  12   8   3   28.64    3.05
  12   8   3   27.90    3.30
  12   8   3   35.16    3.07
 -14  -8  -3   40.81    6.20
 -14  -8  -3   33.36    9.66
 -14  -8  -3   38.63    9.37
  14  -8   3   37.79    3.57
  14   8   3   37.27    3.81
  14   8   3   43.53    4.20
  16  -8   3    2.41    1.78
 -16  -8  -3    4.80    9.72
 -16  -8  -3   -1.54    4.11
 -16  -8  -3   -3.26    8.86
  16   8   3    0.09    2.00
  16   8   3   -0.86    1.48
  18  -8   3   34.28    3.93
 -18  -8  -3   44.01   14.52
 -18  -8  -3   17.57   13.37
 -18  -8  -3   24.19    6.99
  18   8   3   29.91    4.37
  18   8   3   37.99    4.30
 -17  -9   3   12.87    8.38
 -17  -9   3    5.47    8.16
  17  -9  -3   -4.09    2.75
 -17  -9   3    2.22    5.31
  17   9  -3    0.84    2.49
 -17   9   3    4.57    2.15
  17   9  -3   -2.62    2.28
  17   9  -3    0.78    1.85
 -15  -9   3    6.21    4.28
  15  -9  -3    7.37    2.84
 -15   9   3    4.50    1.78
  15   9  -3    5.80    2.10
  15   9  -3    3.66    1.81
  15   9  -3    6.74    2.19
 -13  -9   3   30.93    5.12
  13  -9  -3   26.66    4.00
  13   9  -3   26.68    3.15
  13   9  -3   27.07    3.23
  13   9  -3   27.56    3.48
 -13   9   3   27.91    3.26
 -11  -9   3   10.23    3.33
  11  -9  -3   12.77    2.90
  11  -9  -3   13.95    3.52
  11  -9  -3    6.31    2.62
 -11   9   3   10.45    1.86
  11   9  -3   11.85    2.03
  11   9  -3    7.84    1.70
  11   9  -3   11.99    1.65
  -9  -9   3   68.59    6.73
  -9  -9   3   65.25    6.37
   9  -9  -3   72.05    6.37
   9  -9  -3   67.74    7.67
   9  -9  -3   59.04    8.69
  -9   9   3   71.56    5.59
   9   9  -3   71.15    5.39
   9   9  -3   66.04    5.51
   9   9  -3   69.65    5.65
  -9   9   3   75.77    5.63
   7  -9  -3   24.33    6.19
   7  -9  -3   39.81    5.64
   7  -9  -3   36.62    4.52
   7  -9  -3   34.44    4.22
   7  -9  -3   46.01    4.71
  -7  -9   3   31.50    3.87
   7  -9  -3   43.13    5.54
  -7   9   3   35.17    3.18
   7   9  -3   37.68    3.03
  -7   9   3   37.04    3.19
   7   9  -3   37.99    3.20
   7   9  -3   33.66    3.15
   5  -9  -3    1.94    2.44
  -5  -9   3    1.84    1.33
  -5  -9   3    3.68    1.78
   5  -9  -3    6.69    2.36
   5  -9  -3    4.18    3.75
   5  -9  -3    6.64    2.47
  -5  -9   3    3.14    0.86
   5   9  -3    3.66    0.88
  -5   9   3    4.78    0.97
   5   9  -3    3.18    0.90
  -5   9   3    2.74    0.84
  -5   9   3    1.63    1.13
   3  -9  -3   57.18    6.18
   3  -9  -3   70.81    6.37
  -3  -9   3   67.98    5.95
  -3   9   3   64.91    5.02
  -3   9   3   62.94    5.24
  -3   9   3   67.73    5.10
   1  -9  -3   78.61    7.35
   1  -9  -3   77.15    7.44
   1  -9  -3   81.48    6.12
  -1  -9   3   65.71    7.43
   1  -9  -3   74.39    6.12
   1   9  -3   78.44    5.92
   1   9  -3   78.88    5.73
  -1   9   3   83.02    6.05
  -1   9   3   78.99    5.93
  -1   9   3   82.54    6.14
  -1  -9  -3   10.57    1.67
  -1  -9  -3   12.77    3.42
  -1  -9  -3    7.23    2.76
  -1  -9  -3   11.64    1.38
  -1  -9  -3   11.78    1.45
   1  -9   3   11.67    2.42
  -1   9  -3   10.51    1.34
   1   9   3   11.15    1.39
  -1   9  -3    9.94    1.14
   1   9   3    8.62    1.33
   1   9   3    7.96    1.40
   3  -9   3    1.99    1.73
  -3  -9  -3    2.01    2.28
   3  -9   3    0.39    0.37
   3  -9   3   -0.02    0.47
  -3  -9  -3    2.29    1.15
  -3  -9  -3    2.42    2.55
   3   9   3    0.51    0.65
   3   9   3    0.74    0.69
  -3   9  -3    1.02    0.73
   3   9   3   -0.12    0.72
   5  -9   3   29.18    3.84
  -5  -9  -3   27.93    5.14
   5  -9   3   22.68    3.91
  -5  -9  -3   33.18    3.55
  -5  -9  -3   33.87    5.68
   5   9   3   26.65    2.48
   5   9   3   27.91    2.71
   5   9   3   31.23    2.71
  -5   9  -3   29.39    2.74
  -7  -9  -3   71.36    6.15
  -7  -9  -3   66.80    8.60
  -7  -9  -3   65.73    8.25
   7  -9   3   56.71    4.63
   7  -9   3   66.22    6.07
   7   9   3   57.03    5.06
   7   9   3   62.67    4.80
   7   9   3   69.46    5.12
  -9  -9  -3   37.61    7.66
   9  -9   3   43.99    5.41
  -9  -9  -3   50.68    5.86
  -9  -9  -3   49.46    8.21
   9  -9   3   56.37    3.84
   9   9   3   47.87    4.39
   9   9   3   48.93    4.29
   9   9   3   43.60    3.91
 -11  -9  -3    3.03    5.11
 -11  -9  -3    1.22    3.33
 -11  -9  -3    5.65    5.96
  11  -9   3    5.78    1.11
  11   9   3    4.52    1.54
  11   9   3    3.05    1.68
 -13  -9  -3    3.86    7.06
  13  -9   3    4.60    1.25
 -13  -9  -3    2.33    4.03
 -13  -9  -3    6.00    6.57
  13   9   3    5.35    1.71
  13   9   3    6.77    1.80
 -15  -9  -3   58.21   12.64
 -15  -9  -3   55.95   12.28
 -15  -9  -3   57.73    8.11
  15  -9   3   66.52    5.55
  15   9   3   64.38    5.99
  15   9   3   65.70    5.67
  17  -9   3    9.68    5.33
 -17  -9  -3    3.96   10.83
  17  -9   3    6.52    3.41
 -17  -9  -3   16.27    5.94
 -17  -9  -3   -5.15    9.77
  17   9   3    5.46    2.46
  17   9   3    5.40    2.27
 -16 -10   3    2.55    7.70
  16 -10  -3   -2.99    2.92
 -16 -10   3    3.24    4.35
 -16 -10   3   -3.29    6.57
  16  10  -3    1.36    1.93
 -16  10   3   -0.24    1.82
  16  10  -3   -1.79    2.08
  16  10  -3   -3.94    2.21
  14 -10  -3    0.07    2.71
 -14 -10   3   -1.52    3.68
  14  10  -3    3.16    1.83
  14  10  -3    0.45    1.49
  14  10  -3    0.51    1.93
 -14  10   3    1.28    1.59
 -12 -10   3    2.69    2.94
  12 -10  -3    7.55    2.87
  12  10  -3    5.71    1.67
  12  10  -3    3.22    1.66
  12  10  -3    6.51    1.66
 -12  10   3    3.40    1.50
  10 -10  -3    2.09    2.32
 -10 -10   3    0.97    2.41
  10 -10  -3    6.11    3.46
 -10 -10   3   -1.46    1.97
  10 -10  -3    4.12    4.37
  10  10  -3    1.88    1.39
  10  10  -3    1.36    1.20
  10  10  -3   -0.64    1.01
 -10  10   3   -0.71    1.07
  -8 -10   3    1.66    1.95
  -8 -10   3    1.07    2.17
   8 -10  -3    0.01    1.81
   8 -10  -3    0.95    3.78
   8 -10  -3    4.23    4.68
   8  10  -3    1.71    1.24
  -8  10   3    1.97    1.05
  -8  10   3   -0.70    0.90
   8  10  -3    1.67    0.95
   8  10  -3    1.66    0.95
  -6 -10   3    0.89    2.02
   6 -10  -3    2.16    2.91
  -6 -10   3   -0.12    2.05
   6 -10  -3    2.40    2.85
   6 -10  -3    2.27    4.07
   6 -10  -3    6.88    2.65
   6 -10  -3   -1.49    1.77
  -6  10   3   -0.42    1.24
   6  10  -3    0.88    0.88
  -6  10   3    0.53    0.85
   6  10  -3   -0.07    0.72
   4 -10  -3   -1.87    2.35
   4 -10  -3   -0.21    2.19
   4 -10  -3   -2.11    2.13
   4 -10  -3    1.06    3.41
  -4 -10   3    0.00    2.04
  -4 -10   3    1.06    1.31
   4  10  -3   -0.10    0.58
  -4  10   3    1.61    0.78
  -4  10   3    0.51    0.95
   4  10  -3   -0.45    0.72
  -4  10   3    0.87    0.68
  -2 -10   3    1.48    2.23
   2 -10  -3    4.50    1.16
   2 -10  -3    2.94    2.34
   2 -10  -3    3.26    2.59
  -2  10   3    2.69    0.99
   2  10  -3    2.09    0.86
  -2  10   3    2.56    0.86
   2  10  -3    2.35    0.67
  -2  10   3    5.50    1.04
   0 -10  -3    9.76    3.12
   0 -10   3    5.34    2.28
   0 -10  -3    6.06    2.78
   0 -10  -3    5.11    1.29
   0 -10  -3    7.74    1.32
   0 -10  -3    6.40    1.43
   0  10   3    8.13    1.38
   0  10   3    7.77    1.29
   0  10   3    7.12    1.14
   0  10  -3    9.59    1.30
   2 -10   3    3.60    0.79
   2 -10   3   -0.91    1.86
  -2 -10  -3   -0.17    1.28
  -2 -10  -3    2.39    2.56
  -2 -10  -3    2.07    2.48
   2  10   3    0.60    0.71
   2  10   3    2.09    0.86
   2  10   3    1.87    0.83
  -2  10  -3    1.96    0.62
  -2  10  -3    1.76    0.90
   4 -10   3    2.79    0.61
  -4 -10  -3   -0.15    2.86
  -4 -10  -3    0.03    1.44
   4 -10   3    2.81    2.18
  -4 -10  -3    3.67    3.36
   4  10   3    4.58    1.07
   4  10   3    4.72    0.89
   4  10   3    1.51    0.87
   6 -10   3   -1.13    2.51
  -6 -10  -3   -0.18    3.77
   6 -10   3    2.60    2.07
  -6 -10  -3    0.19    1.77
  -6 -10  -3   -0.25    3.68
   6  10   3    1.53    0.80
   6  10   3   -0.29    0.83
  -6  10  -3    1.71    1.20
   6  10   3    1.32    1.04
  -8 -10  -3    6.91    4.33
   8 -10   3    1.09    0.76
  -8 -10  -3    0.97    4.18
  -8 -10  -3   -3.14    2.30
   8 -10   3    3.89    2.20
   8  10   3    2.57    0.90
   8  10   3    1.47    1.39
   8  10   3   -0.85    1.07
 -10 -10  -3    2.35    3.44
 -10 -10  -3   -5.80    4.73
  10 -10   3    0.60    0.86
  10 -10   3    5.77    2.49
 -10 -10  -3   -1.59    4.60
  10  10   3    1.65    1.44
  10  10   3    0.10    1.27
  12 -10   3   -0.24    1.01
 -12 -10  -3    5.25    5.92
 -12 -10  -3   -0.31    3.87
  12 -10   3    1.94    3.09
 -12 -10  -3   -2.09    5.80
  12  10   3    1.36    1.36
  12  10   3   -0.32    1.63
 -14 -10  -3    2.80    4.40
  14 -10   3   -1.74    3.63
 -14 -10  -3   -0.31    6.45
 -14 -10  -3   -0.28    8.28
  14  10   3    0.06    1.57
  14  10   3    4.10    2.10
  16 -10   3   -6.28    4.72
 -16 -10  -3    3.23   10.03
 -16 -10  -3   -0.79    9.50
 -16 -10  -3    5.21    4.78
  16  10   3    2.33    2.03
  16  10   3   -3.89    2.24
 -15 -11   3   -4.19    4.28
  15 -11  -3    6.14    3.51
  15  11  -3    3.84    2.33
 -15  11   3    3.52    2.02
  15  11  -3    3.08    2.38
  15  11  -3    7.53    2.13
 -13 -11   3   15.36    4.68
  13 -11  -3   25.28    4.05
 -13  11   3   21.87    2.97
  13  11  -3   18.86    2.90
  13  11  -3   22.73    3.06
  13  11  -3   21.19    2.85
  11 -11  -3   14.65    3.41
 -11 -11   3    7.58    3.75
  11 -11  -3   13.71    4.08
  11  11  -3   11.20    2.02
  11  11  -3   11.31    2.26
 -11  11   3   12.91    2.11
  11  11  -3   12.03    2.02
   9 -11  -3   20.56    3.74
  -9 -11   3   20.43    3.27
   9 -11  -3   17.81    6.42
  -9 -11   3   14.04    3.55
   9 -11  -3   24.87    5.15
  -9  11   3   19.61    2.48
   9  11  -3   18.98    2.17
   9  11  -3   21.43    2.64
  -9  11   3   19.48    2.50
   7 -11  -3    2.48    3.81
   7 -11  -3    9.11    4.22
  -7 -11   3    4.32    2.57
   7 -11  -3    8.34    5.30
  -7 -11   3    5.42    2.54
   7 -11  -3    2.02    2.02
   7 -11  -3    4.74    3.54
  -7  11   3    5.34    1.38
  -7  11   3    3.47    1.24
   7  11  -3    3.06    1.05
   7  11  -3    5.40    1.32
   5 -11  -3    5.03    3.26
  -5 -11   3    5.89    2.74
   5 -11  -3    3.11    2.85
   5 -11  -3    4.25    2.89
   5 -11  -3    5.01    4.33
  -5 -11   3    2.38    2.15
  -5  11   3    2.62    1.17
  -5  11   3   -0.42    2.33
  -5  11   3    3.88    1.19
   5  11  -3    4.97    0.97
   5  11  -3    3.81    2.21
   3 -11  -3    1.46    2.93
  -3 -11   3    6.31    2.64
   3 -11  -3    0.16    2.60
   3 -11  -3    5.51    1.33
   3  11  -3    2.75    0.83
  -3  11   3    2.39    1.24
   3  11  -3    1.59    0.90
  -3  11   3    2.93    0.78
  -3  11   3    2.73    1.02
  -1 -11   3   12.21    3.19
   1 -11  -3   10.78    3.66
   1 -11  -3   11.23    1.83
   1 -11  -3   14.89    1.96
   1 -11  -3   16.52    2.21
   1 -11  -3   11.13    3.30
  -1  11   3   11.32    1.48
  -1  11   3   10.08    1.53
  -1  11   3   14.70    1.98
   1  11  -3   10.19    1.53
  -1 -11  -3    1.32    1.07
  -1 -11  -3    1.79    2.75
   1 -11   3    2.03    2.30
  -1 -11  -3    1.10    1.17
  -1 -11  -3   -0.02    1.21
  -1 -11  -3    2.89    2.97
  -1  11  -3    2.49    0.96
  -1  11  -3   -0.37    0.59
   1  11   3    0.75    0.76
   1  11   3   -0.41    0.80
  -3 -11  -3    2.75    1.47
  -3 -11  -3    8.92    4.41
  -3 -11  -3    1.72    2.93
   3 -11   3    1.07    2.26
   3 -11   3    2.15    0.79
   3  11   3    2.45    0.85
   3  11   3    1.23    1.27
  -3  11  -3    0.73    1.02
   3  11   3    2.33    1.02
   5 -11   3    4.57    2.49
  -5 -11  -3    5.12    4.64
  -5 -11  -3    3.52    4.05
  -5 -11  -3    7.82    2.14
   5  11   3    6.51    1.14
   5  11   3    5.28    1.46
   5  11   3   11.08    2.22
  -5  11  -3   10.94    1.75
  -7 -11  -3    6.46    5.22
  -7 -11  -3   13.75    5.86
   7 -11   3    7.10    2.74
  -7 -11  -3    7.87    2.90
   7  11   3   10.07    1.36
   7  11   3    7.15    1.92
   7  11   3    7.99    1.71
  -9 -11  -3    4.12    5.43
  -9 -11  -3    5.94    3.50
  -9 -11  -3   11.97    5.88
   9 -11   3    1.10    2.64
   9  11   3    2.12    1.45
   9  11   3    3.21    1.69
 -11 -11  -3   -0.28    3.74
  11 -11   3    1.97    3.01
 -11 -11  -3    3.88    7.08
 -11 -11  -3    8.42    6.51
  11  11   3    1.37    1.48
  11  11   3    2.89    1.84
 -13 -11  -3   -3.15    4.01
  13 -11   3   -0.96    4.05
 -13 -11  -3   -7.17    6.79
 -13 -11  -3    1.60    6.72
  13  11   3   -0.34    1.95
  13  11   3   -0.55    1.60
 -15 -11  -3    9.11    5.06
 -15 -11  -3   12.04   10.11
 -15 -11  -3   20.92   10.73
  15 -11   3    5.84    5.22
  15  11   3    8.67    2.23
  15  11   3    4.88    2.63
 -14 -12   3   -0.40    4.28
  14 -12  -3    9.03    3.63
  14  12  -3    6.10    2.17
  14  12  -3   12.66    2.77
  14  12  -3    9.23    2.65
 -14  12   3    9.69    2.29
 -12 -12   3   33.91    5.83
  12 -12  -3   51.07    6.51
 -12  12   3   47.73    4.34
  12  12  -3   45.72    4.68
  12  12  -3   33.27    4.24
  10 -12  -3   32.95    4.47
  10 -12  -3   35.32    6.61
 -10 -12   3   16.36    4.36
 -10  12   3   25.56    3.17
  10  12  -3   31.35    3.41
  10  12  -3   26.62    3.17
   8 -12  -3   11.78    3.37
  -8 -12   3    5.96    2.83
  -8 -12   3   11.25    2.94
   8 -12  -3   14.85    6.78
   8 -12  -3    5.22    5.20
  -8  12   3    7.26    1.60
  -8  12   3    9.90    1.76
   8  12  -3   10.89    1.62
   8  12  -3    9.81    2.02
   6 -12  -3   52.86    7.20
   6 -12  -3   51.79    6.84
  -6 -12   3   40.88    5.54
   6 -12  -3   35.26    7.77
   6 -12  -3   41.04    5.29
   6 -12  -3   46.35    6.60
  -6 -12   3   45.98    5.21
  -6  12   3   41.05    4.81
   6  12  -3   41.10    4.11
  -6  12   3   40.48    3.98
  -6  12   3   42.09    4.01
   6  12  -3   45.93    3.66
  -4 -12   3   92.74    8.64
   4 -12  -3  105.96   11.80
  -4 -12   3   79.20    7.96
   4 -12  -3   96.60    9.03
   4 -12  -3  117.93    9.53
   4 -12  -3   88.50    7.19
   4 -12  -3   94.44    9.03
   4  12  -3   71.79    7.05
   4  12  -3   87.92    6.69
  -4  12   3  103.77    7.09
  -4  12   3   80.43    7.01
  -4  12   3   90.65    7.55
   2 -12  -3    4.27    3.24
  -2 -12   3    3.56    3.03
   2 -12  -3    5.31    1.63
   2 -12  -3    4.79    3.37
   2 -12  -3    4.61    2.33
  -2  12   3    2.91    1.71
  -2  12   3    6.27    1.46
   2  12  -3    7.30    1.41
   2  12  -3    5.57    1.05
  -2  12   3    7.20    1.45
   0 -12   3   30.36    4.47
   0 -12  -3   23.95    4.98
   0 -12  -3   26.55    3.30
   0 -12  -3   28.79    3.35
   0  12   3   24.40    2.89
   0  12   3   25.94    2.53
   0  12   3   25.54    3.21
   0  12  -3   27.21    2.40
   0  12  -3   27.74    2.80
  -2 -12  -3   10.30    2.26
  -2 -12  -3   16.67    5.00
   2 -12   3   19.73    3.55
  -2  12  -3   12.28    1.89
   2  12   3   13.64    2.06
  -2  12  -3   14.39    1.66
   2  12   3   12.95    2.07
   2  12   3   13.33    1.64
  -4 -12  -3   14.80    5.63
  -4 -12  -3   15.08    5.72
  -4 -12  -3   15.16    2.91
   4 -12   3   17.02    3.59
   4  12   3   22.82    2.12
   4  12   3   16.40    2.45
   4  12   3   15.42    2.33
  -4  12  -3   23.57    2.61
  -6 -12  -3   50.84    9.08
   6 -12   3   50.89    6.32
  -6 -12  -3   38.91    8.63
  -6 -12  -3   33.58    5.25
   6 -12   3   54.16    7.11
   6  12   3   48.09    4.48
  -6  12  -3   44.41    4.63
   6  12   3   55.66    3.95
   6  12   3   47.28    4.50
  -8 -12  -3    2.90    3.48
   8 -12   3   -2.09    2.56
  -8 -12  -3   -4.93    5.15
  -8 -12  -3    3.25    5.45
   8  12   3    2.71    1.36
   8  12   3   -0.50    1.47
 -10 -12  -3   11.29    6.78
 -10 -12  -3   19.31    8.28
  10 -12   3   22.80    4.23
 -10 -12  -3   15.38    4.94
  10  12   3   26.28    3.25
  10  12   3   24.58    3.09
 -12 -12  -3   48.23   10.81
 -12 -12  -3   63.27   12.12
  12 -12   3   47.48    6.69
 -12 -12  -3   42.89    7.10
  12  12   3   52.32    5.42
  12  12   3   56.90    5.14
 -14 -12  -3   18.66   10.69
 -14 -12  -3   21.43   10.99
  14 -12   3   25.08    5.99
 -14 -12  -3   24.28    6.33
  14  12   3   22.72    3.67
  14  12   3   19.70    3.10
  13 -13  -3    7.69    3.89
 -13 -13   3    2.59    4.48
 -13  13   3   -1.07    1.73
  13  13  -3   -5.49    2.69
  13  13  -3    0.97    1.92
 -11 -13   3   55.47    7.63
  11 -13  -3   52.56    6.45
 -11  13   3   58.76    5.27
  11  13  -3   59.99    5.46
  11  13  -3   52.79    5.38
   9 -13  -3   77.66   10.95
  -9 -13   3   82.92    8.60
   9 -13  -3   64.90    8.23
  -9  13   3   73.38    6.50
   9  13  -3   82.06    6.73
   9  13  -3   89.55    6.39
  -9  13   3   73.35    6.53
   7 -13  -3    6.68    3.33
   7 -13  -3    6.95    5.21
  -7 -13   3    2.14    2.75
   7 -13  -3    9.62    5.00
  -7 -13   3    2.13    2.71
   7 -13  -3    8.51    6.94
  -7  13   3    5.20    1.59
   7  13  -3    3.69    1.61
  -7  13   3    1.81    1.53
   7  13  -3    3.00    1.23
   5 -13  -3   -2.03    4.04
   5 -13  -3    1.69    3.22
   5 -13  -3   10.96    4.71
   5 -13  -3    7.10    4.00
  -5 -13   3    2.02    2.35
   5 -13  -3    3.82    1.84
  -5 -13   3    6.70    3.22
  -5  13   3    3.64    2.30
  -5  13   3    4.17    1.53
   5  13  -3    2.93    1.17
   5  13  -3    3.51    1.60
  -5  13   3    2.01    1.34
   3 -13  -3   21.07    4.07
   3 -13  -3   15.77    2.32
   3 -13  -3   10.83    2.77
  -3 -13   3    8.18    3.76
   3 -13  -3   19.68    4.66
   3 -13  -3   15.99    7.33
   3 -13  -3    1.86    3.91
  -3 -13   3    7.25    3.06
  -3  13   3    9.47    2.36
   3  13  -3   13.83    1.55
  -3  13   3   10.66    1.89
   3  13  -3    7.70    1.82
  -3  13   3    9.95    1.82
   1 -13  -3  115.76    8.47
   1 -13  -3   99.78   11.39
   1 -13  -3   97.31   10.63
  -1 -13   3  106.59   10.19
   1 -13  -3   97.57    8.50
   1  13  -3  101.95    7.65
   1  13  -3  107.22    8.20
  -1  13   3  107.03    7.92
  -1  13   3   94.31    8.01
  -1 -13  -3   65.04    8.95
  -1 -13  -3   51.39    8.23
   1 -13   3   54.52    6.76
  -1 -13  -3   50.50    5.40
  -1  13  -3   66.98    5.03
   1  13   3   60.23    4.94
   1  13   3   48.21    5.08
   1  13   3   54.84    4.59
  -1  13  -3   55.50    4.44
  -3 -13  -3   17.94    3.10
  -3 -13  -3   11.46    5.34
   3 -13   3   17.58    3.94
  -3 -13  -3   11.56    6.00
   3  13   3   13.43    2.26
   3  13   3   16.37    2.02
   3  13   3   11.20    2.11
  -3  13  -3   16.45    2.29
   5 -13   3   38.29    5.50
  -5 -13  -3   32.42    7.76
  -5 -13  -3   44.86    5.76
  -5 -13  -3   48.06    9.01
   5  13   3   33.35    4.17
  -5  13  -3   38.50    4.31
   5  13   3   50.47    3.60
   5  13   3   33.90    4.11
  -7 -13  -3  137.36   15.31
   7 -13   3  143.61   12.24
  -7 -13  -3  149.33   12.12
  -7 -13  -3  120.18   14.99
   7  13   3  137.35   10.69
   7  13   3  133.60   10.69
  -9 -13  -3   22.96    7.91
   9 -13   3   28.63    4.89
  -9 -13  -3   21.05    8.25
  -9 -13  -3   22.53    5.18
   9  13   3   26.01    3.37
   9  13   3   28.85    3.53
 -11 -13  -3   -6.69    7.50
 -11 -13  -3    5.84    5.14
 -11 -13  -3   19.07    8.93
  11 -13   3   -1.85    4.07
  11  13   3    6.82    2.15
  11  13   3    2.63    2.29
  13 -13   3   -7.45    4.95
 -13 -13  -3    0.99    8.73
 -13 -13  -3   14.88    5.64
 -13 -13  -3    6.76    9.54
  13  13   3   -1.00    1.90
  13  13   3    0.24    2.49
 -12 -14   3   23.32    5.95
  12 -14  -3   36.53    5.60
 -12  14   3   28.35    3.69
  12  14  -3   32.14    4.01
 -10 -14   3   32.37    5.88
  10 -14  -3   28.74    5.13
  10  14  -3   39.65    4.35
 -10  14   3   29.39    3.87
   8 -14  -3  -12.75    7.59
   8 -14  -3   -3.32    3.57
  -8 -14   3    4.75    3.25
  -8  14   3    3.55    1.81
   8  14  -3    0.67    1.60
   8  14  -3   -2.62    1.70
  -8  14   3    0.80    1.62
  -6 -14   3   79.35    8.46
   6 -14  -3   87.46   10.46
  -6 -14   3   74.94    8.25
   6 -14  -3   92.79   10.58
   6 -14  -3   71.75    6.71
   6 -14  -3   57.03   12.15
   6 -14  -3   64.54    8.44
   6 -14  -3   77.95    8.35
  -6  14   3   84.94    6.55
  -6  14   3   77.18    6.46
  -6  14   3   75.96    7.50
   6  14  -3   73.18    6.69
   6  14  -3   83.20    6.10
   4 -14  -3  137.19   12.47
  -4 -14   3  166.88   13.43
  -4 -14   3  148.64   12.78
   4 -14  -3  151.44   17.62
   4 -14  -3  139.04   15.30
   4 -14  -3  148.10   14.35
   4 -14  -3  147.73   14.19
   4 -14  -3  161.96   11.83
  -4  14   3  152.04   12.06
  -4  14   3  145.58   11.46
  -4  14   3  157.70   11.55
   4  14  -3  170.44   11.77
   4  14  -3  146.40   11.13
   2 -14  -3   61.48    9.02
  -2 -14   3   69.38    8.59
   2 -14  -3   56.19    7.02
   2 -14  -3   54.27    5.82
  -2 -14   3   62.80    6.89
  -2  14   3   61.80    5.29
   2  14  -3   63.81    4.98
  -2  14   3   54.51    5.32
   2  14  -3   81.37    5.83
  -2  14   3   63.86    5.97
   0 -14  -3   19.23    3.00
   0 -14  -3   14.62    5.99
   0 -14   3   15.58    4.62
   0 -14  -3    6.14    5.63
   0  14   3   12.48    2.52
   0  14  -3   11.66    2.29
   0  14   3   11.99    2.05
   0  14  -3   10.41    1.61
   0  14   3   10.70    1.90
   2 -14   3  137.14   13.29
  -2 -14  -3  133.05   15.25
  -2 -14  -3  151.44   15.33
  -2 -14  -3  137.31   12.26
   2  14   3  163.22   11.68
  -2  14  -3  151.88   10.91
  -2  14  -3  151.85   11.56
   2  14   3  154.72   11.38
  -4 -14  -3  108.59    9.64
  -4 -14  -3  104.96   13.20
  -4 -14  -3  119.75   13.12
   4 -14   3  116.76   10.62
   4  14   3  104.52    7.91
   4  14   3   97.97    8.35
  -4  14  -3   97.58    9.04
   4  14   3  101.96    8.57
   6 -14   3   19.50    4.73
  -6 -14  -3   26.11    8.19
  -6 -14  -3   19.92    7.39
  -6 -14  -3   13.28    4.02
  -6  14  -3   23.10    3.24
   6  14   3   18.02    2.73
   6  14   3   16.45    2.73
  -8 -14  -3    9.90    7.49
  -8 -14  -3    6.99    7.55
   8 -14   3    8.40    4.24
  -8 -14  -3    4.53    4.28
   8  14   3    1.90    2.09
   8  14   3    4.26    2.07
 -10 -14  -3   43.44   11.33
 -10 -14  -3   49.98    7.63
 -10 -14  -3   50.98   11.52
  10 -14   3   41.81    7.15
  10  14   3   70.94    6.00
  10  14   3   69.82    5.88
   9 -15  -3   79.98    9.60
   9 -15  -3   96.05   10.46
  -9 -15   3   72.44    9.46
  -9  15   3   81.78    7.12
   9  15  -3   83.12    7.35
   7 -15  -3   94.25    9.51
  -7 -15   3   77.68    8.80
   7 -15  -3   60.00   14.29
   7 -15  -3   72.26    9.50
   7  15  -3   79.83    7.17
  -7  15   3   87.24    6.98
  -7  15   3   82.61    6.97
   5 -15  -3    4.36    2.74
   5 -15  -3    3.14    4.24
   5 -15  -3    3.57    6.15
  -5 -15   3   -1.37    3.06
   5 -15  -3    4.66    9.34
   5 -15  -3   -2.44    5.95
   5 -15  -3    0.58    3.80
  -5  15   3    4.50    1.79
   5  15  -3    3.26    1.96
  -5  15   3    2.89    1.69
  -5  15   3   -1.85    2.72
   3 -15  -3   33.97   10.20
  -3 -15   3   43.82    5.91
   3 -15  -3   40.83    5.06
   3 -15  -3   34.77    9.32
   3 -15  -3   42.84    7.41
   3 -15  -3   49.60    5.82
  -3 -15   3   46.56    6.82
   3 -15  -3   30.20    7.82
   3  15  -3   47.37    4.82
  -3  15   3   41.82    4.28
   3  15  -3   42.40    3.78
  -3  15   3   42.60    4.22
  -3  15   3   39.86    5.18
  -1 -15   3   63.55    8.10
   1 -15  -3   59.72    9.91
  -1  15   3   63.71    5.56
   1  15  -3   69.00    6.06
  -1  15   3   63.14    5.67
  -1  15   3   56.04    6.27
   1  15  -3   67.24    5.19
  -1 -15  -3  141.10   14.90
  -1 -15  -3  132.26   14.99
   1 -15   3  139.85   13.53
  -1 -15  -3  121.98   11.27
   1  15   3  126.94   10.20
   1  15   3  132.79   10.01
  -1  15  -3  128.17    9.74
   1  15   3  147.21   10.70
  -1  15  -3  127.66   10.52
  -3 -15  -3    6.21    5.94
   3 -15   3    2.38    4.63
  -3 -15  -3    0.37    7.01
  -3 -15  -3   -2.09    3.13
   3  15   3    5.79    1.86
   3  15   3    8.39    2.25
   3  15   3    1.93    1.79
  -3  15  -3    3.88    2.72
   5 -15   3   60.13    8.37
  -5 -15  -3   62.02   11.65
  -5 -15  -3   63.30   10.63
  -5 -15  -3   63.40    8.01
   5  15   3   68.54    6.27
  -5  15  -3   71.74    7.21
   5  15   3   61.49    5.94
  -7 -15  -3   85.35   14.75
  -7 -15  -3   91.48   14.23
   7 -15   3  105.78   11.89
  -7 -15  -3   83.22   10.33
   7  15   3  103.82    8.34
   7  15   3   94.27    8.17
  -9 -15  -3   66.39   12.59
   9 -15   3   51.17    7.95
  -9 -15  -3   60.79   12.63
   9  15   3   52.85    5.68
   9  15   3   50.81    5.82
   8 -16  -3    0.94    4.97
  -8 -16   3    0.87    3.83
   8 -16  -3   -3.78    5.29
   8  16  -3    1.19    2.27
  -8  16   3   -0.45    1.98
  -8  16   3   -2.32    2.05
  -6 -16   3  183.47   15.48
   6 -16  -3  137.24   23.21
   6 -16  -3  224.34   18.10
  -6  16   3  177.98   13.64
   6  16  -3  171.12   13.87
  -6  16   3  184.64   14.81
  -6  16   3  177.01   13.66
   4 -16  -3  171.26   15.53
   4 -16  -3  149.06   18.97
  -4 -16   3  157.04   14.78
   4 -16  -3  169.94   19.25
   4 -16  -3  179.52   21.70
   4 -16  -3  169.60   17.40
  -4  16   3  179.86   14.12
  -4  16   3  174.35   13.25
  -4  16   3  181.93   13.30
   4  16  -3  190.88   13.68
   2 -16  -3    8.49    5.99
   2 -16  -3    5.41    3.45
   2 -16  -3    6.89    7.44
  -2 -16   3    2.94    3.42
   2 -16  -3   -1.76    7.50
   2 -16  -3   16.76   10.34
  -2  16   3    9.37    2.15
  -2  16   3   11.53    2.25
   2  16  -3    9.89    2.75
  -2  16   3    4.01    2.76
   0 -16  -3   12.40    7.48
   0 -16  -3   26.16    8.78
   0 -16  -3   16.58    4.14
   0 -16   3   19.36    6.67
   0  16  -3   19.19    3.41
   0  16   3   17.86    2.89
   0  16   3   28.44    3.07
   0  16   3   24.48    3.70
   2 -16   3   75.34   10.12
  -2 -16  -3   96.27   13.72
  -2 -16  -3   87.21   12.97
   2  16   3   81.21    7.35
   2  16   3   88.60    7.84
   2  16   3   90.05    7.22
  -2  16  -3   89.78    8.17
   4 -16   3   73.73    9.61
  -4 -16  -3   61.35   12.05
  -4 -16  -3   85.74   13.16
   4  16   3   63.49    6.63
   4  16   3   86.14    7.19
  -4  16  -3   82.16    8.09
  -6 -16  -3   38.25   10.58
  -6 -16  -3   23.38    5.50
   6 -16   3   17.58    6.59
  -6 -16  -3   17.22    8.46
   6  16   3   19.73    3.49
   6  16   3   26.95    3.79
   3 -17  -3   18.37    8.20
   3 -17  -3   17.41    5.92
   3 -17  -3    9.53   10.05
   3 -17  -3   14.31   10.62
   3 -17  -3   14.46   12.08
  -3 -17   3   15.23    4.83
  -3  17   3   12.59    2.82
  -3  17   3   17.44    2.83
  -3  17   3   12.58    3.70
   3  17  -3   15.56    3.44
   1 -17  -3   49.51    7.01
  -1 -17   3   55.80    7.49
   1 -17  -3   45.48   11.08
   1 -17  -3   55.14   11.82
  -1  17   3   43.48    5.62
  -1  17   3   59.65    5.48
  -1  17   3   56.49    5.51
   1  17  -3   52.39    6.33
  -1 -17  -3   37.16   10.60
  -1 -17  -3   22.60    5.35
  -1 -17  -3   38.73   10.51
   1  17   3   37.73    4.17
   1  17   3   38.95    4.83
   1  17   3   34.53    3.96
  -1  17  -3   34.21    4.77
  -3 -17  -3    0.74    8.32
  -3 -17  -3   10.24    9.39
  -3 -17  -3    0.68    4.47
   3 -17   3    3.38    7.25
  -3  17  -3    9.01    3.92
   3  17   3    5.43    2.62
   3  17   3    6.10    2.45
  20   0  -4   22.96    3.68
 -20   0   4   22.06    7.93
 -18   0   4   32.20    6.68
  18   0  -4   22.86    3.60
 -16   0   4   69.84    8.90
 -16   0   4   58.66    7.66
 -16   0   4   54.97    7.43
  16   0  -4   47.82    5.33
  14   0  -4   54.23    5.34
 -14   0   4   58.52    4.55
  14   0  -4   56.82    5.60
 -14   0   4   52.27    6.64
 -14   0   4   67.12    7.16
 -14   0   4   64.40    6.28
  12   0  -4   88.75    7.67
 -12   0   4   86.02    7.82
 -12   0   4   90.00    6.74
  12   0  -4   87.32    7.38
  12   0  -4  108.39    8.47
 -10   0   4  136.45   11.26
 -10   0   4  146.14   10.53
  10   0  -4  151.66   11.14
  10   0  -4  153.04   12.07
  10   0  -4  147.64   11.51
   8   0  -4  328.07   24.60
  -8   0   4  323.87   23.08
  -8   0   4  313.39   23.55
   8   0  -4  327.77   24.02
   8   0  -4  340.82   23.62
  -8   0   4  329.58   25.01
   6   0  -4  796.67   61.64
   6   0  -4  943.60   61.23
  -6   0   4  855.68   60.65
  -6   0   4  822.75   60.39
   6   0  -4  895.53   60.63
  -6   0   4  846.33   60.17
  -6   0   4  845.89   61.49
  -4   0   4  141.71   10.68
   4   0  -4  154.19   11.65
  -4   0   4  135.22   12.14
   4   0  -4  139.92   11.30
  -4   0   4  152.77   10.31
   4   0  -4  149.81   10.75
  -4   0   4  151.13   10.33
   4   0  -4  117.60   11.68
   4   0  -4  135.85   10.62
  -4   0   4  145.73   10.17
  -2   0   4    1.13    0.58
   2   0  -4    3.71    2.68
  -2   0   4   -5.48    3.35
   2   0  -4    1.96    2.49
   2   0  -4    2.23    1.39
   2   0  -4    2.03    0.95
   2   0  -4    1.49    1.76
  -2   0   4    2.35    0.80
   0   0   4  529.26   40.38
   0   0  -4  570.86   40.75
   0   0  -4  578.60   42.52
   0   0  -4  604.38   42.69
   0   0   4  586.73   42.57
   0   0  -4  539.30   41.24
   0   0   4  628.57   42.30
   0   0   4  578.85   40.77
  -2   0  -4  148.44   10.68
   2   0   4  145.68   10.73
  -2   0  -4  121.64   11.02
  -2   0  -4  143.18   12.61
   2   0   4  150.85   10.35
  -2   0  -4  175.53   13.12
  -2   0  -4  144.92   11.94
  -2   0  -4  160.27   11.12
   2   0   4  138.15   10.36
  -4   0  -4  279.62   19.45
  -4   0  -4  260.37   21.02
  -4   0  -4  265.86   19.19
   4   0   4  258.40   18.52
  -4   0  -4  303.16   20.21
   4   0   4  244.25   18.88
  -4   0  -4  228.56   20.71
   6   0   4   61.23    4.35
   6   0   4   57.49    4.65
  -6   0  -4   55.70    7.30
  -6   0  -4   56.62    5.38
   6   0   4   57.86    4.18
  -6   0  -4   48.84    7.20
  -8   0  -4   77.70    6.72
  -8   0  -4   92.30    9.27
   8   0   4   71.17    5.27
   8   0   4   69.58    5.45
  -8   0  -4   71.34    8.50
 -10   0  -4  498.96   36.42
 -10   0  -4  440.01   35.89
  10   0   4  486.51   32.72
  10   0   4  449.57   32.91
 -10   0  -4  450.05   34.11
 -12   0  -4  204.42   20.54
  12   0   4  222.82   16.67
 -12   0  -4  207.94   20.44
  12   0   4  252.67   16.46
 -12   0  -4  243.97   18.43
 -14   0  -4    0.99    3.11
  14   0   4    0.16    1.09
 -14   0  -4   -6.59    6.62
  14   0   4    2.25    0.77
 -16   0  -4   47.05   13.32
 -16   0  -4   46.99    7.47
  16   0   4   53.36    3.94
 -16   0  -4   45.31   12.55
  16   0   4   41.54    4.40
 -18   0  -4  204.89   27.38
 -18   0  -4  199.16   27.94
  18   0   4  202.21   15.31
  18   0   4  209.60   15.49
 -18   0  -4  211.90   18.95
 -20   0  -4   38.25    8.60
 -20   0  -4   28.44   19.84
  20   0   4   38.76    4.73
 -20   0  -4   38.00   21.66
  19  -1  -4  106.23    8.95
 -19  -1   4   92.30   11.67
  19   1  -4  101.15    8.76
 -17  -1   4  107.35   11.88
  17  -1  -4   99.11    8.57
 -17  -1   4   82.84   12.55
 -17  -1   4   93.38   10.60
 -17   1   4   94.99   10.99
  17   1  -4  114.41    8.60
 -15  -1   4    2.35    3.79
 -15  -1   4    5.15    4.22
  15  -1  -4    7.18    2.16
  15  -1  -4    7.41    2.21
 -15  -1   4   12.89    3.97
 -15   1   4    4.76    3.48
  15   1  -4    4.37    1.82
 -15   1   4    1.49    4.38
 -15   1   4    5.72    1.15
 -13  -1   4   44.83    5.08
  13  -1  -4   36.78    4.43
  13  -1  -4   39.71    4.40
 -13  -1   4   42.79    3.42
  13  -1  -4   53.26    5.39
  13   1  -4   42.88    4.48
 -13   1   4   37.66    4.76
 -13   1   4   44.50    3.51
 -13   1   4   54.13    5.40
 -13   1   4   45.29    5.61
  13   1  -4   40.55    4.10
 -11  -1   4  332.22   24.64
  11  -1  -4  333.68   24.37
  11  -1  -4  335.00   24.64
  11  -1  -4  355.78   25.24
 -11  -1   4  331.51   23.69
 -11   1   4  332.17   24.52
  11   1  -4  385.17   25.41
  11   1  -4  333.34   24.26
 -11   1   4  329.48   25.77
  11   1  -4  292.55   24.49
 -11   1   4  334.23   23.77
  -9  -1   4  295.19   21.52
   9  -1  -4  298.49   22.47
  -9  -1   4  292.49   20.84
   9  -1  -4  298.40   21.87
   9  -1  -4  304.89   21.53
  -9   1   4  295.65   20.92
   9   1  -4  306.08   21.84
  -9   1   4  274.79   22.56
   9   1  -4  291.92   21.36
  -9   1   4  269.47   21.40
   9   1  -4  321.94   22.44
   7  -1  -4    2.62    1.14
   7  -1  -4    4.00    2.08
  -7  -1   4    1.99    0.48
  -7  -1   4    2.98    1.00
  -7  -1   4    1.18    0.90
   7  -1  -4   -0.08    1.52
  -7   1   4    1.67    1.10
   7   1  -4    2.64    0.95
  -7   1   4   -0.20    3.29
  -7   1   4    2.30    0.53
   7   1  -4    0.49    1.53
   7   1  -4    1.24    1.41
  -5  -1   4  307.69   20.68
  -5  -1   4  314.99   23.02
   5  -1  -4  300.46   21.84
   5  -1  -4  281.08   21.15
   5  -1  -4  285.57   21.14
  -5  -1   4  303.33   20.89
   5  -1  -4  248.16   22.30
  -5  -1   4  300.05   21.19
   5   1  -4  320.50   21.04
   5   1  -4  296.68   21.55
  -5   1   4  258.24   22.09
  -5   1   4  296.38   20.66
   5   1  -4  295.33   22.15
   5   1  -4  298.47   21.24
  -5   1   4  274.07   20.77
  -5   1   4  284.85   20.71
  -5   1   4  303.08   21.12
   3  -1  -4  205.66   15.65
   3  -1  -4  189.96   15.10
  -3  -1   4  205.17   14.03
   3  -1  -4  194.03   14.29
   3  -1  -4  206.12   14.45
  -3  -1   4  193.23   14.38
  -3  -1   4  201.24   13.81
   3  -1  -4  163.97   15.69
  -3  -1   4  170.81   15.69
   3  -1  -4  187.39   15.62
  -3   1   4  216.34   13.89
   3   1  -4  202.15   15.50
  -3   1   4  214.86   14.06
   3   1  -4  160.58   14.65
  -3   1   4  205.36   13.91
  -3   1   4  191.83   14.27
  -3   1   4  195.23   15.84
   3   1  -4  187.20   14.35
   3   1  -4  196.31   15.43
   3   1  -4  210.51   14.23
   1  -1  -4  425.33   29.35
   1  -1  -4  353.16   30.65
  -1  -1   4  380.53   30.97
   1  -1  -4  429.76   30.09
   1  -1  -4  413.65   30.92
  -1  -1   4  429.72   28.92
  -1  -1   4  434.35   29.53
  -1   1   4  407.29   29.00
   1   1  -4  455.14   31.19
  -1   1   4  402.51   29.33
  -1   1   4  428.75   29.29
   1   1  -4  387.99   28.91
   1   1  -4  473.08   31.40
  -1   1   4  464.62   31.10
   1   1  -4  398.71   29.89
   1   1  -4  356.96   30.37
   1   1  -4  420.76   29.48
  -1   1   4  388.10   29.19
  -1  -1  -4   66.38    5.13
  -1  -1  -4   71.76    5.33
  -1  -1  -4   74.33    5.72
  -1  -1  -4   59.32    6.94
  -1  -1  -4   55.37    6.35
   1  -1   4   74.10    4.75
  -1  -1  -4   53.64    6.81
   1  -1   4   64.51    6.85
   1  -1   4   65.14    5.26
   1   1   4   64.17    4.82
  -1   1  -4   51.41    6.25
  -1   1  -4   73.32    7.62
  -1   1  -4   68.58    5.83
   1   1   4   73.30    8.03
  -1   1  -4   68.84    5.25
   1   1   4   64.95    4.83
  -1   1  -4   56.87    7.13
   1   1   4   69.95    5.19
  -3  -1  -4  159.63   13.87
  -3  -1  -4  149.30   13.69
  -3  -1  -4  166.59   12.38
   3  -1   4  164.17   12.14
   3   1   4  176.34   11.80
  -3   1  -4  159.48   12.49
  -3   1  -4  148.33   13.04
   3   1   4  175.76   11.76
  -3   1  -4  191.44   11.65
  -3   1  -4  156.82   14.48
   3   1   4  156.86   12.00
  -3   1  -4  132.27   14.27
  -3   1  -4  180.37   12.80
   5  -1   4  381.22   26.08
  -5  -1  -4  334.13   28.27
  -5  -1  -4  381.76   28.49
  -5  -1  -4  351.62   26.91
   5  -1   4  361.73   26.21
   5  -1   4  366.66   26.57
  -5   1  -4  369.52   27.24
  -5   1  -4  369.67   29.05
   5   1   4  369.08   26.28
  -5   1  -4  395.92   26.78
  -5   1  -4  404.61   27.56
  -5   1  -4  360.07   28.87
   5   1   4  384.26   26.48
   5   1   4  371.43   26.16
   7  -1   4  274.29   17.21
  -7  -1  -4  240.68   19.86
  -7  -1  -4  234.65   19.79
   7  -1   4  271.91   17.40
  -7  -1  -4  240.84   18.29
   7   1   4  229.94   17.27
   7   1   4  245.48   17.64
   7   1   4  233.31   17.42
  -7   1  -4  216.45   20.11
  -7   1  -4  243.92   18.55
  -7   1  -4  233.19   20.23
  -9  -1  -4   27.58    6.09
  -9  -1  -4   29.57    3.79
   9  -1   4   28.12    2.39
   9  -1   4   28.38    2.14
  -9  -1  -4   29.34    6.33
   9   1   4   27.50    2.44
  -9   1  -4   29.05    6.44
  -9   1  -4   32.27    6.67
   9   1   4   27.29    2.21
  -9   1  -4   25.34    3.89
 -11  -1  -4   70.54   10.35
  11  -1   4   68.73    5.55
 -11  -1  -4   81.47    9.90
 -11  -1  -4   66.44    6.91
  11  -1   4   72.27    5.31
  11   1   4   75.93    5.64
  11   1   4   72.48    5.38
 -11   1  -4   73.46    7.11
 -11   1  -4   90.04   10.74
 -11   1  -4   74.76   10.71
 -13  -1  -4   70.22    7.49
  13  -1   4   63.06    4.74
 -13  -1  -4   71.51   12.41
  13  -1   4   59.93    5.04
 -13  -1  -4   61.53   10.42
 -13   1  -4   52.53   10.26
 -13   1  -4   58.93   10.23
  13   1   4   66.56    4.84
 -13   1  -4   61.42    7.66
 -15  -1  -4   96.21   15.17
  15  -1   4  111.06    7.61
 -15  -1  -4  103.47   10.54
 -15  -1  -4   94.04   15.47
  15  -1   4  107.57    8.04
 -15   1  -4  100.74   10.75
 -15   1  -4   86.01   15.02
 -15   1  -4  104.85   15.30
  15   1   4   99.63    8.08
  15   1   4   98.88    7.64
  17  -1   4   58.99    5.09
 -17  -1  -4   41.96   14.04
 -17  -1  -4   57.09   14.17
 -17  -1  -4   57.29    8.38
  17  -1   4   57.50    4.36
  17   1   4   52.26    5.04
 -17   1  -4   47.74    8.21
 -17   1  -4   34.43   13.77
 -17   1  -4   64.19   16.23
  17   1   4   51.82    4.49
 -19  -1  -4   12.77   15.65
  19  -1   4   12.40    2.48
 -19  -1  -4   17.71   14.87
 -19  -1  -4    1.05    5.65
  19   1   4   13.80    2.24
  19   1   4   12.21    2.52
 -19   1  -4    6.02   16.60
 -19   1  -4   19.29    7.18
 -19   1  -4    9.27   16.52
  20  -2  -4   23.67    3.70
 -20  -2   4   21.45    7.71
  20   2  -4   21.76    3.58
  20   2  -4   22.04    3.39
 -20   2   4    9.60    8.25
 -18  -2   4   11.83    8.42
  18  -2  -4    4.37    2.26
 -18  -2   4    1.50    4.87
 -18   2   4    3.53    5.58
  18   2  -4    8.21    2.22
  16  -2  -4   87.89    7.27
 -16  -2   4   74.92   10.27
 -16  -2   4   79.64    8.95
 -16  -2   4   78.94    9.73
 -16   2   4   83.90    9.61
  16   2  -4   75.06    6.90
  14  -2  -4  127.76    9.85
 -14  -2   4  105.93   12.32
  14  -2  -4  122.59    9.87
 -14   2   4  112.35   10.43
  14   2  -4  123.12    9.64
 -14   2   4  129.16    9.08
  12  -2  -4   98.22    8.28
 -12  -2   4   96.78    8.48
 -12  -2   4  105.21    7.25
  12  -2  -4  115.43    8.99
  12  -2  -4   98.97    8.08
 -12   2   4   90.72    8.19
 -12   2   4  101.50    7.42
 -12   2   4  104.02    8.64
  12   2  -4  106.14    7.87
 -12   2   4   84.88    9.94
 -12   2   4   90.48    8.04
  12   2  -4   97.69    8.32
  10  -2  -4    2.57    1.18
  10  -2  -4    0.15    1.61
 -10  -2   4    1.95    1.51
  10  -2  -4    0.53    1.92
 -10  -2   4    3.35    0.52
  10   2  -4    4.72    1.70
  10   2  -4    1.04    0.99
 -10   2   4    2.42    1.57
 -10   2   4    3.13    1.67
 -10   2   4    1.63    0.61
 -10   2   4   -2.11    4.23
 -10   2   4    6.08    3.94
  10   2  -4    3.67    1.71
   8  -2  -4  165.96   12.79
   8  -2  -4  163.90   13.48
  -8  -2   4  155.99   12.16
   8  -2  -4  170.27   12.35
  -8  -2   4  136.20   12.39
  -8  -2   4  162.87   11.52
  -8   2   4  161.17   11.67
   8   2  -4  180.92   12.64
   8   2  -4  160.03   11.99
  -8   2   4  150.12   12.00
  -8   2   4  161.25   13.60
   8   2  -4  193.51   13.23
  -8   2   4  156.85   13.24
  -6  -2   4  393.10   27.04
  -6  -2   4  385.63   26.38
   6  -2  -4  377.33   27.06
   6  -2  -4  333.68   28.31
   6  -2  -4  354.13   27.60
  -6  -2   4  371.67   26.78
   6   2  -4  429.15   27.95
   6   2  -4  380.15   26.73
  -6   2   4  405.87   27.83
   6   2  -4  418.05   27.53
  -6   2   4  363.86   27.55
   6   2  -4  311.77   27.10
  -6   2   4  383.26   26.61
  -6   2   4  367.46   26.47
  -6   2   4  356.26   26.48
  -4  -2   4  317.50   22.67
   4  -2  -4  316.33   22.73
  -4  -2   4  328.04   22.15
   4  -2  -4  312.85   22.52
   4  -2  -4  302.21   25.47
   4  -2  -4  268.20   24.09
   4  -2  -4  311.62   23.43
   4  -2  -4  335.75   23.49
  -4   2   4  302.04   22.46
  -4   2   4  337.02   22.21
  -4   2   4  300.36   22.11
  -4   2   4  303.20   23.37
   4   2  -4  309.12   22.63
   4   2  -4  336.24   22.97
  -4   2   4  289.48   22.06
   4   2  -4  347.01   22.36
   4   2  -4  298.86   23.34
   2  -2  -4    6.80    2.60
   2  -2  -4    5.90    2.57
   2  -2  -4    8.67    1.26
  -2  -2   4    6.81    1.40
   2  -2  -4    7.76    2.87
   2  -2  -4    7.98    2.00
  -2   2   4    6.96    0.96
   2   2  -4    3.58    2.39
   2   2  -4    6.98    1.57
  -2   2   4    6.21    1.15
  -2   2   4   11.37    3.21
  -2   2   4    6.26    0.76
   2   2  -4    7.17    1.65
   2   2  -4    4.19    1.70
   2   2  -4    7.08    0.57
   2   2  -4    7.55    1.00
  -2   2   4    4.86    0.70
   0  -2   4  123.35    9.56
   0  -2  -4  120.89    9.88
   0  -2  -4  140.43    9.33
   0  -2  -4  124.75    9.35
   0  -2  -4  130.18   10.94
   0  -2  -4  132.58   10.87
   0  -2  -4  150.81   11.14
   0  -2   4  112.14   10.47
   0  -2   4  117.61    8.93
   0   2  -4  107.77   10.24
   0   2  -4  120.85    9.84
   0   2   4  125.66    9.13
   0   2  -4  133.64   11.38
   0   2  -4  128.66    9.55
   0   2  -4  129.35   11.39
   0   2   4  140.53   11.11
   0   2   4  135.76    9.34
   0   2   4  129.68    9.11
  -2  -2  -4  234.26   20.66
  -2  -2  -4  301.35   19.55
  -2  -2  -4  280.21   19.30
  -2  -2  -4  256.99   20.78
   2  -2   4  276.91   20.64
   2  -2   4  272.97   19.55
   2   2   4  263.66   19.35
   2   2   4  278.49   19.15
  -2   2  -4  298.15   19.01
  -2   2  -4  272.54   21.86
  -2   2  -4  275.49   19.88
   2   2   4  245.01   19.15
  -2   2  -4  223.69   20.16
  -2   2  -4  286.84   22.03
  -2   2  -4  273.95   19.49
  -2   2  -4  283.28   19.04
   4  -2   4  517.38   36.41
  -4  -2  -4  591.03   38.25
  -4  -2  -4  495.86   37.86
  -4  -2  -4  529.95   36.56
  -4   2  -4  524.54   37.18
   4   2   4  498.43   35.97
   4   2   4  535.85   36.18
  -4   2  -4  471.98   38.76
   4   2   4  488.37   36.03
  -4   2  -4  454.52   36.52
  -4   2  -4  538.72   39.03
  -6  -2  -4   21.33    4.44
  -6  -2  -4   21.75    4.40
  -6  -2  -4   17.40    2.62
   6  -2   4   24.65    2.41
   6  -2   4   19.24    1.77
   6   2   4   22.50    1.80
  -6   2  -4   21.30    3.35
  -6   2  -4   17.83    5.11
   6   2   4   21.75    2.12
  -6   2  -4   26.56    3.64
   6   2   4   24.70    1.99
  -6   2  -4   24.86    5.69
  -6   2  -4   26.00    2.90
   8  -2   4  123.52   10.00
  -8  -2  -4  133.17   12.69
  -8  -2  -4  127.83   12.66
  -8  -2  -4  144.97   11.09
   8  -2   4  131.47    9.81
  -8   2  -4  150.28   10.55
  -8   2  -4  152.29   11.26
  -8   2  -4  127.24   13.60
  -8   2  -4  157.69   11.70
   8   2   4  149.95   10.17
  -8   2  -4  128.72   13.64
   8   2   4  137.60    9.98
 -10  -2  -4  338.23   28.96
 -10  -2  -4  351.41   28.91
  10  -2   4  407.14   26.11
  10  -2   4  406.03   25.84
 -10  -2  -4  339.11   27.17
  10   2   4  344.29   25.95
 -10   2  -4  404.04   26.45
 -10   2  -4  384.01   27.13
 -10   2  -4  313.38   29.46
 -10   2  -4  335.30   27.57
  10   2   4  371.03   26.18
 -12  -2  -4   91.52   11.43
 -12  -2  -4   94.08   11.51
  12  -2   4   97.82    7.18
 -12   2  -4  107.12    8.16
 -12   2  -4   88.26   12.51
  12   2   4  102.41    7.59
 -12   2  -4  112.02    9.14
 -12   2  -4   86.21   11.73
  12   2   4   95.71    7.31
 -12   2  -4   97.11   13.57
 -14  -2  -4    7.87    7.12
 -14  -2  -4    0.39    3.35
  14  -2   4    2.48    0.76
 -14   2  -4    0.67    2.58
 -14   2  -4    4.30    3.78
 -14   2  -4    2.79    3.57
  14   2   4    2.21    0.80
  14   2   4    3.77    1.30
 -14   2  -4    0.90    7.47
 -14   2  -4  -12.46    6.62
 -16  -2  -4   54.05   13.09
 -16  -2  -4   81.96   13.97
 -16  -2  -4   64.72    8.36
  16  -2   4   65.17    4.99
  16  -2   4   64.91    5.58
 -16   2  -4   58.34    8.57
 -16   2  -4   66.09   14.07
 -16   2  -4   43.34   14.19
  16   2   4   69.58    5.21
  16   2   4   64.67    5.68
 -18  -2  -4   26.75   13.76
 -18  -2  -4   40.89    7.14
  18  -2   4   28.18    3.82
 -18  -2  -4   19.67   12.99
  18   2   4   33.60    3.48
 -18   2  -4   26.94   16.88
 -18   2  -4   38.56    8.15
 -18   2  -4   34.23   16.09
  18   2   4   30.40    3.82
  19  -3  -4   23.17    4.02
 -19  -3   4   23.30   10.26
 -19  -3   4   28.15    6.76
 -19  -3   4   53.84   14.52
 -19   3   4   30.68    8.18
  19   3  -4   25.39    3.77
  19   3  -4   28.97    3.72
 -17  -3   4   73.14   10.41
 -17  -3   4   70.42   10.28
  17  -3  -4   63.60    6.34
 -17  -3   4   59.60    8.33
  17   3  -4   63.23    6.05
 -17   3   4   66.47    5.65
 -17   3   4   62.91    8.71
 -15  -3   4   29.68    5.21
  15  -3  -4   28.62    3.82
  15  -3  -4   34.86    3.93
 -15  -3   4   34.60    5.98
  15   3  -4   25.78    3.43
 -15   3   4   30.52    5.54
 -15   3   4   23.04    3.07
 -13  -3   4  155.88   12.55
  13  -3  -4  170.55   12.70
  13  -3  -4  148.02   12.08
  13  -3  -4  148.81   11.99
 -13   3   4  157.99   12.61
  13   3  -4  148.07   11.72
 -13   3   4  153.95   11.29
  11  -3  -4  215.66   15.93
 -11  -3   4  214.79   16.13
 -11  -3   4  220.37   14.99
  11  -3  -4  214.77   16.13
  11  -3  -4  221.47   16.77
  11   3  -4  192.12   15.50
 -11   3   4  211.06   15.24
  11   3  -4  207.22   16.05
  -9  -3   4    1.79    1.56
  -9  -3   4    1.03    1.16
   9  -3  -4   -0.40    1.17
   9  -3  -4    2.04    1.93
  -9  -3   4    1.53    0.39
   9  -3  -4    0.72    2.05
   9   3  -4    1.64    1.24
  -9   3   4    2.22    0.65
   9   3  -4    0.10    0.86
  -9   3   4    3.27    1.48
   9   3  -4    0.65    1.46
  -7  -3   4   12.72    1.96
   7  -3  -4   11.20    2.03
  -7  -3   4   13.96    1.87
   7  -3  -4   10.66    3.26
   7  -3  -4   10.76    2.62
  -7  -3   4   13.82    1.08
  -7   3   4   13.41    1.77
  -7   3   4   15.57    1.82
  -7   3   4   14.56    1.39
  -7   3   4   12.50    1.89
   7   3  -4   12.74    1.65
  -7   3   4   11.87    1.31
   7   3  -4   11.91    2.17
   7   3  -4   10.86    2.29
   5  -3  -4   24.66    3.40
   5  -3  -4   26.09    3.97
   5  -3  -4   16.86    4.30
  -5  -3   4   18.49    2.48
  -5  -3   4   23.64    2.32
   5  -3  -4   24.27    2.82
  -5  -3   4   18.84    1.79
   5  -3  -4   18.26    2.61
   5  -3  -4   33.18    3.73
   5   3  -4   24.30    3.12
   5   3  -4   26.59    2.15
  -5   3   4   22.36    2.87
   5   3  -4   23.98    3.25
   5   3  -4   23.18    2.65
  -5   3   4   24.62    2.25
  -5   3   4   23.38    3.01
  -5   3   4   23.12    1.91
  -5   3   4   18.94    1.90
   3  -3  -4  155.76   13.22
   3  -3  -4  159.07   12.94
  -3  -3   4  171.17   12.31
   3  -3  -4  160.71   12.01
   3  -3  -4  169.12   13.24
   3  -3  -4  141.21   13.78
   3   3  -4  186.30   11.50
   3   3  -4  153.12   11.73
   3   3  -4  171.01   12.33
   3   3  -4  163.84   12.37
  -3   3   4  142.97   11.74
  -3   3   4  180.34   12.65
   3   3  -4  166.18   12.82
  -3   3   4  166.06   11.72
   1  -3  -4   35.11    4.46
   1  -3  -4   32.71    2.84
   1  -3  -4   40.85    4.56
   1  -3  -4   32.67    2.56
   1  -3  -4   32.93    4.74
  -1  -3   4   30.20    3.17
   1  -3  -4   35.30    3.69
  -1   3   4   32.24    2.44
  -1   3   4   32.13    2.76
   1   3  -4   35.55    3.28
  -1   3   4   32.84    2.66
  -1   3   4   32.16    2.59
  -1   3   4   34.73    4.65
  -1   3   4   39.18    2.80
   1   3  -4   30.18    2.53
   1   3  -4   27.41    3.24
   1   3  -4   32.81    3.72
  -1  -3  -4   61.06    6.19
  -1  -3  -4   55.25    4.96
   1  -3   4   58.71    4.97
  -1  -3  -4   59.67    6.06
  -1  -3  -4   61.67    4.67
  -1   3  -4   67.92    4.30
   1   3   4   57.33    4.52
  -1   3  -4   61.57    6.97
  -1   3  -4   67.20    4.41
  -1   3  -4   57.45    5.45
  -1   3  -4   61.07    5.16
  -1   3  -4   45.79    6.86
   1   3   4   59.94    4.51
   1   3   4   56.22    4.71
   1   3   4   58.86    4.60
  -3  -3  -4  105.11    7.54
  -3  -3  -4   97.07    8.83
   3  -3   4   98.56    7.59
  -3  -3  -4   95.64    8.85
   3  -3   4  117.59    8.78
   3   3   4   92.70    7.15
   3   3   4  108.45    7.16
  -3   3  -4   97.63    7.00
  -3   3  -4   83.38    7.91
  -3   3  -4  104.70   10.47
  -3   3  -4   91.30   10.17
   3   3   4   91.02    7.22
  -5  -3  -4  431.75   32.10
  -5  -3  -4  396.15   31.87
  -5  -3  -4  407.35   30.60
   5  -3   4  427.60   30.54
   5   3   4  438.95   30.08
  -5   3  -4  409.90   33.07
  -5   3  -4  435.47   33.31
  -5   3  -4  445.06   30.49
   5   3   4  434.34   30.17
   5   3   4  431.52   30.16
  -7  -3  -4   99.82    7.59
   7  -3   4   92.12    7.28
  -7  -3  -4  103.65    9.59
  -7  -3  -4   92.71    9.18
  -7   3  -4   86.73   10.73
  -7   3  -4   79.43    7.38
  -7   3  -4   83.64   10.79
  -7   3  -4   82.13    7.13
   7   3   4   94.14    6.67
   7   3   4   90.38    6.81
  -7   3  -4   94.12    8.48
   7   3   4   99.50    6.87
   9  -3   4   52.89    3.86
   9  -3   4   51.88    4.11
  -9  -3  -4   51.04    7.22
  -9  -3  -4   49.65    7.56
   9  -3   4   55.49    4.04
  -9  -3  -4   51.27    5.29
  -9   3  -4   61.10    4.38
  -9   3  -4   62.51    6.25
  -9   3  -4   57.19    9.11
   9   3   4   52.06    4.10
  -9   3  -4   51.60    4.27
   9   3   4   50.03    4.27
  -9   3  -4   44.06    8.19
  -9   3  -4   58.45    4.86
 -11  -3  -4   28.22    3.61
 -11  -3  -4   22.35    5.61
  11  -3   4   21.31    1.73
  11  -3   4   20.70    2.08
 -11  -3  -4   16.27    5.23
  11   3   4   21.05    1.98
  11   3   4   21.94    2.20
 -11   3  -4   20.45    4.32
 -11   3  -4   21.28    3.24
 -11   3  -4   19.59    7.21
 -11   3  -4   28.50    3.33
 -11   3  -4   19.23    2.92
 -11   3  -4   15.10    7.01
 -13  -3  -4   45.15    5.96
  13  -3   4   38.74    2.87
  13  -3   4   38.32    3.24
 -13  -3  -4   32.79    8.65
 -13  -3  -4   28.70    9.30
  13   3   4   38.39    3.55
  13   3   4   32.62    3.07
 -13   3  -4   28.79    5.81
 -13   3  -4   40.27    8.82
 -13   3  -4   43.43   12.96
  15  -3   4   28.25    3.13
  15  -3   4   25.90    2.35
 -15  -3  -4   35.19   10.16
 -15  -3  -4   29.15    9.49
 -15  -3  -4   32.18    5.53
 -15   3  -4   40.07    9.83
 -15   3  -4   31.83   11.44
 -15   3  -4   25.00    5.79
  15   3   4   28.68    3.22
  15   3   4   26.33    2.62
 -17  -3  -4   -2.69    9.68
 -17  -3  -4   -4.04    9.16
 -17  -3  -4    4.66    4.17
  17  -3   4    0.86    1.69
 -17   3  -4  -15.72   13.21
 -17   3  -4    1.79   12.42
  17   3   4    2.99    1.65
 -17   3  -4   -0.98    5.06
  17   3   4    0.69    1.44
  19  -3   4    2.45    2.01
 -19  -3  -4    9.64    5.52
 -19  -3  -4   -2.21   13.72
 -19  -3  -4    7.04   13.99
 -19   3  -4  -12.76    6.05
  19   3   4   -1.53    4.83
  19   3   4    0.59    1.95
  19   3   4    2.28    1.92
  20  -4  -4    1.12    2.46
 -20  -4   4   -5.72   10.78
 -20  -4   4    0.93    6.00
 -20   4   4   -1.19    8.43
  20   4  -4   -0.99    2.12
  20   4  -4    3.22    2.43
 -18  -4   4    3.85    5.10
 -18  -4   4   -7.82    7.96
 -18  -4   4    2.64    7.29
  18  -4  -4    8.07    2.49
  18   4  -4    5.13    2.28
  18   4  -4    4.18    1.85
 -18   4   4    8.47    2.23
 -18   4   4    9.08    6.43
 -16  -4   4   12.75    4.67
 -16  -4   4    0.99    5.87
  16  -4  -4    9.67    2.73
  16  -4  -4   11.87    2.61
 -16  -4   4   13.92    5.74
  16   4  -4    7.70    2.13
 -16   4   4    9.09    1.94
 -16   4   4   11.27    5.65
  14  -4  -4   18.13    3.00
  14  -4  -4   19.62    2.91
  14  -4  -4   16.89    3.22
 -14  -4   4    8.01    3.86
 -14   4   4   16.84    4.29
 -14   4   4   16.74    2.11
  14   4  -4   17.31    2.60
  12  -4  -4    2.28    2.10
 -12  -4   4    3.09    1.87
  12  -4  -4    0.30    1.89
  12  -4  -4    1.91    1.48
  12   4  -4    1.68    1.15
 -12   4   4   -0.07    0.71
  10  -4  -4    6.03    2.25
 -10  -4   4    7.45    2.00
  10  -4  -4    2.96    2.47
  10  -4  -4    8.48    1.74
 -10  -4   4    4.56    1.77
 -10   4   4    4.36    2.19
  10   4  -4    4.49    1.65
 -10   4   4    3.95    0.88
  10   4  -4    4.61    1.31
  -8  -4   4   -1.58    1.14
  -8  -4   4    1.26    1.14
   8  -4  -4    0.67    2.66
   8  -4  -4   -0.85    1.96
   8  -4  -4    3.37    1.41
  -8  -4   4    1.05    0.21
  -8   4   4    0.93    0.56
  -8   4   4    1.50    1.76
   8   4  -4    1.03    1.33
   8   4  -4    2.02    0.83
  -8   4   4    1.46    0.65
   6  -4  -4  146.60   10.18
   6  -4  -4  139.76   11.01
   6  -4  -4  129.70   11.79
  -6  -4   4  142.02   10.87
  -6  -4   4  143.71   10.72
   6  -4  -4  111.24   12.55
  -6  -4   4  142.09   10.04
   6   4  -4  167.53   11.62
   6   4  -4  154.17   10.40
  -6   4   4  148.82   10.32
  -6   4   4  124.12   10.26
  -6   4   4  151.75   10.62
   6   4  -4  136.32   10.93
   4  -4  -4   84.00    7.86
  -4  -4   4   83.35    7.05
   4  -4  -4  101.92    9.00
   4  -4  -4   69.58    8.78
   4  -4  -4   86.57    7.91
   4  -4  -4   89.89    6.91
  -4   4   4   81.10    6.44
   4   4  -4  102.54    6.50
   4   4  -4   88.62    7.12
   4   4  -4   85.29    7.41
  -4   4   4   88.26    6.50
   4   4  -4   86.52    7.43
   2  -4  -4    2.55    2.10
   2  -4  -4    4.31    1.60
  -2  -4   4    1.80    1.06
   2  -4  -4    3.58    2.01
   2  -4  -4    2.58    0.91
   2  -4  -4    3.86    2.33
  -2   4   4    3.19    0.65
   2   4  -4    3.39    1.51
  -2   4   4    3.05    0.72
   2   4  -4    3.17    1.34
  -2   4   4    3.18    2.04
   2   4  -4    3.18    1.15
  -2   4   4    3.75    0.76
   0  -4  -4   71.60    7.02
   0  -4  -4   75.67    5.73
   0  -4  -4   81.01    5.65
   0  -4   4   66.74    6.07
   0  -4  -4   72.42    7.04
   0   4   4   91.30    5.84
   0   4  -4   71.78    6.35
   0   4  -4   76.54    6.17
   0   4   4   79.18    5.68
   0   4  -4   80.69    6.13
   0   4   4   66.37    5.58
   0   4  -4   77.27    5.48
   0   4   4   73.03    5.63
   0   4   4   78.03    5.66
  -2  -4  -4   97.99    8.76
  -2  -4  -4   94.45    7.11
   2  -4   4   97.08    7.65
  -2  -4  -4  107.99    7.43
  -2  -4  -4   93.42    8.73
   2   4   4   96.16    7.21
  -2   4  -4  117.89    7.62
   2   4   4   97.70    7.10
   2   4   4   86.03    7.33
  -2   4  -4   97.73    7.75
   2   4   4   93.91    7.18
  -2   4  -4  103.35    9.92
   4  -4   4    6.27    1.39
  -4  -4  -4    5.17    2.59
  -4  -4  -4   10.81    1.67
   4  -4   4   10.19    2.45
  -4  -4  -4    9.77    2.76
   4   4   4    9.73    1.14
  -4   4  -4   13.25    1.41
  -4   4  -4    9.79    1.44
   4   4   4    8.06    1.00
  -4   4  -4    7.03    1.46
  -4   4  -4    6.94    4.02
  -4   4  -4    2.70    3.59
   4   4   4    9.23    1.14
  -6  -4  -4   -0.07    2.59
   6  -4   4    0.03    0.31
  -6  -4  -4    1.98    1.35
  -6  -4  -4   -2.57    2.20
   6  -4   4   -0.67    1.02
   6   4   4    1.13    0.44
   6   4   4    0.72    0.54
  -6   4  -4    2.69    4.14
   6   4   4    0.84    0.63
  -6   4  -4   -0.03    3.92
  -6   4  -4    0.60    0.68
  -8  -4  -4    0.81    2.67
   8  -4   4    3.72    0.62
  -8  -4  -4    1.90    1.65
  -8  -4  -4    2.85    3.19
   8   4   4    2.77    0.65
  -8   4  -4    0.95    5.01
   8   4   4    1.96    0.74
  -8   4  -4    3.58    2.81
  -8   4  -4   -0.53    4.21
   8   4   4    3.56    0.94
 -10  -4  -4   32.97    6.56
 -10  -4  -4   34.10    4.27
  10  -4   4   34.45    2.86
  10  -4   4   33.98    2.53
  10  -4   4   38.61    2.67
 -10  -4  -4   32.94    6.82
  10   4   4   30.17    2.84
 -10   4  -4   39.70    5.65
  10   4   4   35.23    3.07
 -10   4  -4   50.93    8.74
 -10   4  -4   31.05    7.97
  12  -4   4   69.98    5.76
 -12  -4  -4   85.05   11.01
  12  -4   4   81.01    5.43
 -12  -4  -4   63.53   10.54
 -12  -4  -4   69.92    7.81
 -12   4  -4   70.47   10.95
 -12   4  -4   74.56    8.97
  12   4   4   73.95    6.08
  12   4   4   77.85    5.77
  14  -4   4    0.27    0.67
 -14  -4  -4    0.63    3.56
 -14  -4  -4   -7.41    6.38
  14  -4   4    2.15    1.08
 -14  -4  -4    5.05    6.69
  14   4   4    0.71    1.29
 -14   4  -4    1.30    4.17
  14   4   4    1.51    0.91
 -14   4  -4   -2.48    8.09
 -14   4  -4   -6.02    7.43
 -16  -4  -4   37.79   11.32
 -16  -4  -4   26.31    5.71
 -16  -4  -4   23.39   10.44
  16  -4   4   27.51    3.36
 -16   4  -4   16.01    6.03
 -16   4  -4   24.16   10.74
  16   4   4   31.86    3.52
 -16   4  -4   35.31   11.79
  16   4   4   30.17    3.14
 -18  -4  -4    6.69    4.77
  18  -4   4    5.32    2.09
 -18  -4  -4   -2.15   10.98
 -18  -4  -4   14.37   12.06
  18   4   4    7.56    2.18
  18   4   4    6.02    1.95
 -18   4  -4    2.74    6.34
  19  -5  -4    1.00    2.44
 -19  -5   4   -3.25    5.29
 -19  -5   4   15.21   10.73
 -19  -5   4   17.44    9.59
  19   5  -4    0.28    1.96
  19   5  -4    3.21    2.25
 -19   5   4    6.29    8.20
 -17  -5   4    4.32    5.99
 -17  -5   4   -2.48    4.21
 -17  -5   4    5.32    6.66
  17  -5  -4   -3.28    2.25
 -17   5   4    2.11    6.28
 -17   5   4    1.46    1.72
  17   5  -4    2.80    1.61
  17   5  -4   -0.61    1.85
 -15  -5   4   -1.37    3.23
  15  -5  -4   -2.24    2.06
  15  -5  -4   -1.26    1.98
 -15   5   4    0.77    4.04
 -15   5   4    0.17    1.20
  15   5  -4    0.50    1.50
  15   5  -4    0.33    1.36
 -13  -5   4    0.58    2.72
  13  -5  -4    2.88    2.07
  13  -5  -4    3.49    2.55
  13  -5  -4    3.40    2.03
 -13   5   4    3.86    1.22
  13   5  -4    4.46    1.50
 -13   5   4    6.43    3.39
  11  -5  -4    3.38    1.40
  11  -5  -4    3.85    2.39
 -11  -5   4    2.43    1.85
  11  -5  -4    4.42    2.15
  11   5  -4    1.20    1.06
 -11   5   4    1.57    2.66
 -11   5   4    4.21    1.02
   9  -5  -4    5.94    1.70
   9  -5  -4    1.44    2.79
   9  -5  -4    3.77    2.37
  -9  -5   4    3.86    1.56
  -9  -5   4    2.37    1.66
  -9   5   4    1.81    2.44
   9   5  -4    2.98    1.45
  -9   5   4    3.34    0.80
   9   5  -4    2.65    0.96
   7  -5  -4    4.25    3.31
  -7  -5   4    1.10    1.01
   7  -5  -4   -0.46    2.36
   7  -5  -4   -1.89    1.17
  -7  -5   4    0.80    1.28
   7   5  -4   -0.86    0.60
  -7   5   4    0.95    0.61
   7   5  -4    0.65    1.18
  -7   5   4    0.94    0.54
  -5  -5   4   18.80    1.47
  -5  -5   4   19.36    2.57
   5  -5  -4   19.96    4.59
   5  -5  -4   25.02    2.93
   5  -5  -4   20.16    3.61
  -5  -5   4   21.51    1.59
   5  -5  -4   17.22    3.44
   5  -5  -4   16.74    1.56
   5  -5  -4   23.51    3.84
  -5   5   4   17.99    1.80
   5   5  -4   22.72    2.94
   5   5  -4   14.30    1.72
  -5   5   4   22.27    1.84
   5   5  -4   21.76    2.58
   3  -5  -4   40.69    4.76
   3  -5  -4   33.60    4.48
   3  -5  -4   36.83    3.34
   3  -5  -4   36.24    5.51
  -3  -5   4   35.63    3.64
   3  -5  -4   38.97    4.29
   3   5  -4   34.41    3.49
   3   5  -4   37.22    2.60
   3   5  -4   34.99    2.86
   3   5  -4   33.31    2.76
  -3   5   4   37.19    3.11
   3   5  -4   41.60    3.99
   3   5  -4   41.14    4.08
  -3   5   4   35.44    2.93
  -3   5   4   34.39    2.90
   1  -5  -4   34.29    4.99
   1  -5  -4   32.56    4.10
  -1  -5   4   22.22    2.87
   1  -5  -4   26.66    2.53
   1  -5  -4   31.03    3.94
  -1  -5   4   25.54    2.25
   1  -5  -4   27.94    3.38
   1   5  -4   31.96    3.18
  -1   5   4   27.52    2.36
   1   5  -4   25.31    3.36
  -1   5   4   26.82    2.39
  -1   5   4   30.93    2.47
   1   5  -4   28.55    2.21
   1   5  -4   27.20    2.78
   1  -5   4    6.52    0.78
  -1  -5  -4    8.93    1.02
  -1  -5  -4   10.31    1.36
   1  -5   4    6.47    1.41
  -1  -5  -4    5.32    2.28
  -1  -5  -4    5.87    2.35
   1   5   4   11.08    1.30
   1   5   4    7.57    1.00
   1   5   4    5.19    0.87
  -1   5  -4    6.00    0.73
  -1   5  -4    7.84    1.57
  -1   5  -4    3.84    1.76
  -1   5  -4    6.07    1.23
  -3  -5  -4   27.32    2.62
  -3  -5  -4   25.08    4.31
   3  -5   4   23.67    2.62
  -3  -5  -4   18.62    3.70
   3   5   4   22.07    2.08
  -3   5  -4   21.94    1.84
   3   5   4   25.05    2.36
  -3   5  -4   21.73    4.63
   3   5   4   23.86    2.14
  -3   5  -4   26.18    2.32
  -3   5  -4   26.52    2.48
   5  -5   4    2.91    0.43
  -5  -5  -4    3.64    2.35
  -5  -5  -4    3.78    2.81
  -5  -5  -4    4.25    1.43
   5  -5   4    4.59    1.44
  -5   5  -4    5.44    0.78
  -5   5  -4    5.75    1.29
  -5   5  -4    4.56    4.11
   5   5   4    4.68    1.08
   5   5   4    4.01    0.71
  -5   5  -4    2.33    3.65
   5   5   4    4.09    0.86
  -7  -5  -4   13.08    3.95
   7  -5   4   22.86    2.87
  -7  -5  -4   19.72    2.78
  -7  -5  -4   14.49    3.90
   7  -5   4   16.98    1.50
  -7   5  -4   15.59    5.66
   7   5   4   20.72    1.77
  -7   5  -4   12.33    5.36
   7   5   4   15.29    1.81
   7   5   4   17.79    1.73
  -9  -5  -4   13.41    2.67
  -9  -5  -4    8.62    3.62
  -9  -5  -4   13.08    4.35
   9  -5   4   10.43    1.21
  -9   5  -4    7.50    5.54
  -9   5  -4   14.05    5.86
   9   5   4   14.10    1.83
   9   5   4    9.82    1.49
   9   5   4   10.97    1.46
   9   5   4    8.85    1.27
   9   5   4    9.23    1.45
  11  -5   4   30.57    2.16
 -11  -5  -4   32.45    7.36
 -11  -5  -4   33.99    7.60
 -11  -5  -4   29.28    4.85
  11  -5   4   28.70    2.55
  11   5   4   25.14    2.56
  11   5   4   32.31    3.05
  11   5   4   31.98    3.73
 -11   5  -4   32.21    9.57
  11   5   4   24.63    2.92
 -11   5  -4   46.33    8.40
 -11   5  -4   23.83    6.25
 -13  -5  -4   -0.32    2.94
 -13  -5  -4   -1.47    5.87
  13  -5   4    4.24    1.03
 -13  -5  -4   10.93    7.09
  13   5   4    3.63    1.40
 -13   5  -4    5.98    7.13
  13   5   4    8.76    1.94
  13   5   4    6.46    1.36
 -13   5  -4   22.37    8.58
 -13   5  -4    6.56    4.55
 -15  -5  -4   12.92    8.49
 -15  -5  -4    8.83    3.97
 -15  -5  -4    0.14    7.18
  15  -5   4   12.64    1.98
 -15   5  -4   11.96    9.48
 -15   5  -4   13.56    9.29
  15   5   4   15.79    2.96
  15   5   4   12.08    2.21
  15   5   4   10.25    1.86
 -15   5  -4   17.04    6.14
 -17  -5  -4   -1.51    4.29
 -17  -5  -4   -4.79    9.08
 -17  -5  -4   -2.94    9.96
  17  -5   4    1.95    1.70
  17   5   4    2.54    1.84
  17   5   4    4.35    1.69
 -17   5  -4    2.39   11.03
 -17   5  -4    4.02    6.36
 -19  -5  -4    6.32    5.90
  19  -5   4    1.65    2.33
 -19  -5  -4   27.09   14.68
 -19  -5  -4  -13.28   12.65
 -19   5  -4   10.40    8.61
  19   5   4   -0.87    2.00
  19   5   4    2.89    2.08
 -18  -6   4   16.22    8.95
 -18  -6   4    7.32    7.50
  18  -6  -4    0.18    2.35
  18   6  -4    4.23    2.24
 -18   6   4   -1.51    7.80
  18   6  -4    0.77    1.82
 -18   6   4    0.58    1.94
  16  -6  -4    5.08    2.50
 -16  -6   4    6.21    4.49
 -16   6   4    3.38    5.84
  16   6  -4    6.86    1.96
  16   6  -4    7.11    1.89
 -16   6   4    3.36    1.79
 -14  -6   4   66.32    7.73
  14  -6  -4   74.82    6.57
  14  -6  -4   68.56    6.39
  14  -6  -4   53.65    5.83
 -14   6   4   64.73    8.60
  14   6  -4   58.48    5.35
  14   6  -4   58.73    5.47
 -14   6   4   57.45    5.17
  12  -6  -4    0.39    2.12
  12  -6  -4   -0.40    2.37
  12  -6  -4    1.04    2.01
 -12  -6   4    2.40    2.58
  12   6  -4    0.91    1.11
  12   6  -4    0.31    1.05
 -12   6   4    0.92    1.08
  10  -6  -4   23.68    3.31
  10  -6  -4   29.90    4.19
  10  -6  -4   27.96    5.13
 -10  -6   4   26.87    3.50
 -10  -6   4   20.95    3.31
 -10   6   4   24.41    2.28
  10   6  -4   25.46    2.50
  10   6  -4   24.73    2.52
  -8  -6   4   18.98    2.99
   8  -6  -4   19.64    5.11
   8  -6  -4   20.81    3.11
  -8  -6   4   24.24    3.05
   8  -6  -4   27.16    4.59
  -8   6   4   22.13    2.14
   8   6  -4   28.87    3.21
  -8   6   4   25.96    2.27
   8   6  -4   23.54    2.28
   8   6  -4   23.93    2.28
   6  -6  -4   10.69    3.15
  -6  -6   4    7.34    1.70
   6  -6  -4   11.26    2.92
  -6  -6   4   14.36    2.27
   6  -6  -4    9.60    2.16
   6  -6  -4   18.40    3.00
   6  -6  -4    5.48    3.62
   6   6  -4   13.20    1.22
   6   6  -4   10.87    1.35
   6   6  -4    9.73    1.90
  -6   6   4   11.35    1.39
   4  -6  -4    7.24    2.47
   4  -6  -4    7.68    1.72
   4  -6  -4    9.11    0.89
   4  -6  -4    9.25    1.02
   4  -6  -4    3.92    2.90
   4  -6  -4    2.80    2.48
   4  -6  -4    9.37    2.57
  -4  -6   4    9.82    1.94
   4   6  -4   10.11    1.79
   4   6  -4    5.98    1.02
  -4   6   4   10.31    1.27
  -4   6   4   12.69    1.59
  -4   6   4    9.97    1.29
   4   6  -4   10.87    1.10
   4   6  -4    9.38    0.88
   2  -6  -4    0.62    0.90
  -2  -6   4    0.84    1.23
   2  -6  -4   -0.03    1.87
   2  -6  -4    1.93    1.59
   2  -6  -4    4.63    2.45
   2  -6  -4    0.88    2.41
   2  -6  -4    3.14    0.57
   2   6  -4    2.78    1.11
  -2   6   4    2.84    0.69
  -2   6   4    0.85    0.73
   2   6  -4    2.63    0.31
   2   6  -4    3.23    0.51
  -2   6   4    3.52    0.68
   2   6  -4    2.64    0.59
   0  -6  -4   22.39    1.87
   0  -6   4   17.15    2.47
   0  -6  -4   19.54    3.26
   0  -6   4   15.53    1.40
   0  -6  -4   15.61    1.82
   0  -6  -4   22.11    3.65
   0   6  -4   20.10    2.15
   0   6   4   18.39    1.80
   0   6   4   16.37    1.72
   0   6   4   16.69    1.78
   0   6  -4   18.07    1.55
  -2  -6  -4   17.12    3.55
  -2  -6  -4    9.98    1.71
   2  -6   4   17.92    3.79
  -2  -6  -4   16.34    3.27
   2  -6   4   12.07    2.23
   2   6   4   14.89    1.50
  -2   6  -4   14.26    1.21
   2   6   4   14.87    1.61
   2   6   4   11.29    1.42
  -2   6  -4   11.33    1.66
  -4  -6  -4  112.62    9.66
  -4  -6  -4  104.72    7.96
  -4  -6  -4   95.95    9.35
   4  -6   4  101.89    8.18
   4   6   4   97.42    7.58
  -4   6  -4  105.10    7.25
   4   6   4   98.65    7.52
   4   6   4   94.57    7.45
  -6  -6  -4   61.50    5.39
   6  -6   4   56.84    5.29
  -6  -6  -4   53.48    6.99
  -6  -6  -4   59.53    7.15
   6   6   4   54.73    4.77
  -6   6  -4   68.59    8.25
   6   6   4   62.36    4.73
   6   6   4   60.48    4.60
   8  -6   4   54.74    5.19
  -8  -6  -4   57.37    5.32
  -8  -6  -4   39.26    7.01
   8  -6   4   58.14    4.00
  -8  -6  -4   49.38    6.93
   8   6   4   50.76    4.31
   8   6   4   53.28    4.54
   8   6   4   50.17    4.21
  -8   6  -4   57.04    8.79
 -10  -6  -4    4.28    3.86
 -10  -6  -4    0.60    1.92
  10  -6   4    1.00    0.66
 -10  -6  -4    1.20    4.16
  10   6   4    1.59    0.94
  10   6   4   -0.23    0.65
 -10   6  -4   -0.94    5.17
 -10   6  -4   -7.12    5.06
  10   6   4    0.52    0.98
  10   6   4   -0.53    1.44
 -12  -6  -4   -0.08    2.73
  12  -6   4   -0.68    0.80
 -12  -6  -4   -6.35    5.21
  12   6   4    0.18    1.01
 -12   6  -4    8.30    6.47
  12   6   4   -0.10    1.09
  12   6   4    3.09    1.41
 -12   6  -4    6.26    6.18
 -14  -6  -4    1.71    3.08
  14  -6   4    2.10    1.06
 -14  -6  -4   -0.76    6.46
 -14  -6  -4    3.62    6.51
  14   6   4    0.69    1.22
  14   6   4    2.38    1.98
  14   6   4    0.88    1.39
 -14   6  -4   -2.45    7.69
  14   6   4    1.87    1.40
 -16  -6  -4   33.49   10.32
 -16  -6  -4    6.30    4.62
 -16  -6  -4   -7.36    8.86
  16  -6   4    0.96    1.57
  16   6   4    2.05    1.54
  16   6   4   -0.48    1.64
  16   6   4    0.17    1.42
 -18  -6  -4   27.47   11.68
  18  -6   4    3.48    2.16
 -18  -6  -4   -8.13   11.16
 -18  -6  -4   -5.47    4.45
  18   6   4    2.89    1.97
  18   6   4    2.07    1.90
  18   6   4    3.00    2.04
  17  -7  -4   -3.83    2.37
 -17  -7   4   -2.46    4.62
 -17  -7   4    1.91    7.58
 -17  -7   4    4.52    6.58
  17   7  -4    3.29    1.88
  17   7  -4    1.03    2.06
 -17   7   4    4.46    1.99
  15  -7  -4    0.53    2.40
 -15  -7   4   -2.06    3.62
  15   7  -4    5.04    1.93
  15   7  -4    5.61    1.78
 -15   7   4    3.46    1.56
  13  -7  -4    4.78    2.52
  13  -7  -4    2.48    2.71
  13  -7  -4    5.16    2.41
 -13  -7   4    2.58    3.15
  13   7  -4    4.16    1.64
  13   7  -4    4.22    1.62
 -13   7   4    6.12    1.53
  11  -7  -4   49.58    7.45
  11  -7  -4   48.32    5.98
  11  -7  -4   45.12    6.72
 -11  -7   4   54.45    6.09
 -11   7   4   54.38    4.42
  11   7  -4   50.53    4.52
  11   7  -4   52.06    4.41
   9  -7  -4   36.85    6.49
  -9  -7   4   38.96    4.27
  -9  -7   4   41.63    4.37
   9  -7  -4   38.67    4.35
   9  -7  -4   42.10    6.07
   9   7  -4   32.84    3.30
   9   7  -4   39.30    3.32
  -9   7   4   36.91    3.24
   7  -7  -4  129.97   11.07
  -7  -7   4  120.56    9.63
   7  -7  -4  118.76    9.67
  -7  -7   4  116.71    9.41
   7  -7  -4  101.39   12.05
  -7   7   4  128.17    8.75
   7   7  -4  119.71    8.69
  -7   7   4  122.27    8.77
   7   7  -4  101.96    8.69
   5  -7  -4   23.07    4.04
   5  -7  -4   24.92    3.75
   5  -7  -4   15.50    4.72
  -5  -7   4   20.08    1.50
   5  -7  -4   21.13    3.49
  -5  -7   4   19.59    2.95
   5   7  -4   17.19    1.84
  -5   7   4   17.61    2.29
  -5   7   4   19.61    1.94
  -5   7   4   17.31    1.91
   3  -7  -4  431.86   31.59
   3  -7  -4  467.89   31.72
   3  -7  -4  450.48   33.28
  -3  -7   4  401.97   31.12
   3  -7  -4  364.85   31.34
   3  -7  -4  459.31   30.34
   3  -7  -4  405.79   30.68
  -3   7   4  396.88   30.46
   3   7  -4  487.55   31.06
  -3   7   4  439.33   30.51
  -3   7   4  415.29   30.62
   3   7  -4  444.35   30.42
  -1  -7   4   56.07    3.77
   1  -7  -4   46.35    3.99
   1  -7  -4   50.73    5.47
   1  -7  -4   56.01    3.95
  -1  -7   4   45.60    4.67
  -1   7   4   47.11    4.02
  -1   7   4   45.44    3.90
  -1   7   4   52.06    3.98
   1   7  -4   46.24    3.57
  -1  -7  -4    1.39    0.65
  -1  -7  -4    2.12    0.94
  -1  -7  -4   -0.05    2.14
   1  -7   4    0.22    1.29
  -1  -7  -4    3.39    2.21
   1   7   4    1.16    0.66
   1   7   4    0.80    0.65
   1   7   4    1.25    0.71
  -1   7  -4    0.84    0.52
  -3  -7  -4    0.82    2.28
   3  -7   4   -3.11    2.65
  -3  -7  -4    0.34    2.02
  -3  -7  -4    0.51    1.15
   3  -7   4    0.43    1.38
  -3   7  -4    0.19    0.53
   3   7   4   -0.52    0.69
   3   7   4    2.41    0.69
   3   7   4   -0.18    0.61
   5  -7   4   80.56    7.14
  -5  -7  -4   87.14    8.82
  -5  -7  -4   91.07    6.97
   5  -7   4   72.78    7.11
  -5  -7  -4   81.50    8.50
  -5   7  -4   94.39    6.21
   5   7   4   88.95    6.34
   5   7   4   75.29    6.33
   5   7   4   77.39    6.35
  -7  -7  -4   94.45    7.15
  -7  -7  -4   74.46    8.73
  -7  -7  -4   89.91    9.13
   7  -7   4   72.96    5.66
   7  -7   4   76.68    5.72
   7  -7   4   74.59    6.91
   7   7   4   80.50    6.21
   7   7   4   88.93    6.25
   7   7   4   78.46    6.08
  -9  -7  -4   11.68    5.34
   9  -7   4    8.10    2.29
   9  -7   4    8.69    1.14
  -9  -7  -4    9.47    4.99
  -9  -7  -4   11.96    2.77
  -9   7  -4   12.90    5.49
   9   7   4   13.43    1.84
   9   7   4    7.64    1.31
   9   7   4    7.10    1.24
 -11  -7  -4   -2.32    4.68
 -11  -7  -4    2.61    5.05
 -11  -7  -4    5.98    3.11
  11  -7   4    1.65    0.83
  11  -7   4    7.01    2.36
  11   7   4    0.78    1.01
 -11   7  -4    6.02    5.60
  11   7   4   -0.38    1.11
  11   7   4    3.95    1.64
 -13  -7  -4   42.92   10.46
  13  -7   4   57.14    4.43
 -13  -7  -4   68.67   11.67
 -13  -7  -4   45.64    6.76
 -13   7  -4   84.29   11.85
  13   7   4   53.36    4.69
  13   7   4   48.52    4.85
  13   7   4   58.18    5.42
 -15  -7  -4   83.93   13.48
 -15  -7  -4   88.65    9.52
 -15  -7  -4   71.11   13.82
  15   7   4   79.69    6.96
  15   7   4   85.40    6.78
 -17  -7  -4  -15.96    9.19
  17  -7   4   -0.18    4.54
 -17  -7  -4    0.62    4.72
  17  -7   4   -1.52    1.78
 -17  -7  -4   -3.37   11.21
  17   7   4    0.64    1.80
  17   7   4    3.06    2.04
  18  -8  -4    4.78    3.23
 -18  -8   4    8.83    9.25
 -18  -8   4  -10.86    7.33
 -18  -8   4   -8.15    5.45
 -18   8   4    1.24    2.23
  18   8  -4   -3.11    2.31
  18   8  -4    2.79    2.03
  18   8  -4   -1.78    2.59
 -16  -8   4   32.62    6.43
  16  -8  -4   45.34    5.77
  16   8  -4   47.87    4.91
  16   8  -4   37.26    4.68
 -16   8   4   40.22    4.51
  16   8  -4   48.18    4.61
 -14  -8   4   69.99    8.17
  14  -8  -4   84.05    7.51
  14  -8  -4   89.67    7.48
 -14   8   4   81.91    6.36
  14   8  -4   73.40    6.40
  14   8  -4   72.10    6.31
  14   8  -4   60.25    6.43
  12  -8  -4   23.83    3.71
  12  -8  -4   22.45    4.43
 -12  -8   4   18.70    3.98
  12  -8  -4   21.34    3.76
  12   8  -4   20.55    2.60
  12   8  -4   22.51    2.91
 -12   8   4   19.97    2.52
  12   8  -4   20.76    2.33
 -10  -8   4    5.36    2.53
  10  -8  -4    5.44    3.41
  10  -8  -4    6.78    2.56
 -10  -8   4    5.87    2.29
  10  -8  -4    8.23    4.31
  10   8  -4    3.83    1.39
  10   8  -4    4.71    1.21
 -10   8   4    5.80    1.35
  10   8  -4    7.54    1.20
   8  -8  -4   72.99    8.88
  -8  -8   4   82.37    7.12
   8  -8  -4   76.01    7.13
   8  -8  -4   64.52    9.98
  -8  -8   4   75.25    7.05
  -8   8   4   79.89    6.19
  -8   8   4   83.88    6.26
   8   8  -4   77.86    6.18
   8   8  -4   86.41    6.28
   8   8  -4   87.56    6.03
   6  -8  -4  103.56    9.80
   6  -8  -4   97.01   11.46
   6  -8  -4  114.37    9.35
   6  -8  -4  107.43    8.79
   6  -8  -4   91.55    8.99
  -6  -8   4  105.39    8.79
  -6  -8   4  105.34    8.47
   6   8  -4  102.43    7.63
  -6   8   4  107.44    7.74
   6   8  -4  103.21    7.47
  -6   8   4   97.06    7.73
   4  -8  -4  123.97    9.85
   4  -8  -4  100.99   11.14
   4  -8  -4  106.22    8.09
  -4  -8   4   98.17    9.14
   4  -8  -4  119.68    9.81
   4  -8  -4  112.16    9.62
  -4   8   4  111.99    8.51
   4   8  -4  123.76    7.96
  -4   8   4  107.09    8.25
  -4   8   4   98.46    8.24
   4   8  -4  116.54    8.10
   4   8  -4  111.85    8.22
  -2  -8   4   12.29    2.71
   2  -8  -4   14.09    3.40
   2  -8  -4   23.61    4.99
   2  -8  -4   16.55    1.69
   2  -8  -4   14.23    3.20
   2  -8  -4   11.86    1.90
  -2   8   4   13.78    1.82
  -2   8   4   19.33    1.77
   2   8  -4   15.28    1.28
  -2   8   4   13.30    1.61
   0  -8  -4  125.58    8.51
   0  -8  -4  112.70    9.98
   0  -8   4  119.48    9.35
   0  -8  -4  115.28    9.93
   0  -8  -4  113.68    8.30
   0   8   4   99.49    8.29
   0   8   4  101.42    8.39
   0   8   4  117.88    8.42
  -2  -8  -4  258.28   18.56
  -2  -8  -4  267.50   16.94
   2  -8   4  239.91   17.36
  -2  -8  -4  232.39   18.38
   2   8   4  206.11   16.61
   2   8   4  255.36   16.69
   2   8   4  206.41   16.52
  -2   8  -4  199.58   16.37
   4  -8   4   35.88    5.52
  -4  -8  -4   42.09    6.36
   4  -8   4   38.60    4.51
  -4  -8  -4   32.33    5.63
  -4  -8  -4   43.79    4.10
  -4   8  -4   44.12    3.24
   4   8   4   37.25    3.34
   4   8   4   38.37    3.36
   4   8   4   39.22    3.41
  -6  -8  -4   32.93    3.75
  -6  -8  -4   31.33    5.59
   6  -8   4   33.91    4.07
   6   8   4   31.72    2.83
   6   8   4   32.06    2.92
   6   8   4   28.73    2.86
  -8  -8  -4   77.86    6.81
  -8  -8  -4   58.10    9.22
   8  -8   4   78.24    5.28
   8  -8   4   69.37    6.59
   8   8   4   66.06    5.64
   8   8   4   76.03    5.74
   8   8   4   69.24    5.81
 -10  -8  -4   40.21    5.55
  10  -8   4   40.42    4.72
 -10  -8  -4   44.30    8.32
  10  -8   4   32.45    2.97
 -10  -8  -4   40.71    8.14
  10   8   4   37.72    3.67
  10   8   4   41.75    3.55
  12  -8   4   48.54    3.75
 -12  -8  -4   52.62    6.69
 -12  -8  -4   37.72    9.35
 -12  -8  -4   57.02   10.10
  12  -8   4   44.27    5.95
  12   8   4   37.70    4.12
  12   8   4   38.78    4.25
  12   8   4   55.66    4.64
 -14  -8  -4    1.03    7.69
  14  -8   4    1.94    3.63
 -14  -8  -4    4.48    8.07
 -14  -8  -4   -1.36    3.54
  14  -8   4    0.93    1.14
  14   8   4    5.56    1.75
  14   8   4    1.72    1.58
 -16  -8  -4   35.64   11.80
 -16  -8  -4   36.61   11.15
 -16  -8  -4   33.94    6.43
  16  -8   4   29.66    5.89
  16  -8   4   29.30    3.67
  16   8   4   26.82    3.67
  16   8   4   30.30    3.53
 -17  -9   4   70.42   12.79
 -17  -9   4   72.94   12.70
  17  -9  -4   66.14    7.89
  17   9  -4   81.35    6.93
  17   9  -4   72.37    7.18
  17   9  -4   79.60    7.19
 -17   9   4   73.93    6.79
 -15  -9   4   -4.92    4.19
  15  -9  -4    3.97    2.86
  15   9  -4    3.15    1.99
  15   9  -4    1.01    1.61
  15   9  -4   -0.12    2.00
 -15   9   4   -1.51    1.56
 -13  -9   4   13.85    3.75
  13  -9  -4   17.60    3.61
  13  -9  -4   16.85    3.87
  13   9  -4   16.41    2.42
  13   9  -4   17.27    2.49
 -13   9   4   11.19    2.17
  13   9  -4   16.11    2.25
  11  -9  -4  104.06    9.09
 -11  -9   4  103.59    9.34
  11  -9  -4   93.87   10.65
 -11  -9   4  106.08    8.96
  11  -9  -4   91.33    9.70
  11   9  -4  110.17    8.16
  11   9  -4  101.42    8.04
 -11   9   4  101.62    7.94
  11   9  -4  103.79    7.76
  -9  -9   4  148.11   12.10
   9  -9  -4  138.02   14.70
   9  -9  -4  130.06   11.93
   9  -9  -4  156.45   13.46
  -9  -9   4  144.59   11.84
  -9   9   4  148.72   11.07
   9   9  -4  150.26   11.00
   9   9  -4  155.84   10.82
  -9   9   4  156.56   11.08
   9   9  -4  147.24   11.09
   7  -9  -4   33.27    4.49
  -7  -9   4   25.85    5.82
   7  -9  -4   54.62    5.21
  -7  -9   4   39.05    4.83
   7  -9  -4   40.79    6.42
   7  -9  -4   39.81    5.42
   7  -9  -4   27.78    7.07
   7  -9  -4   40.78    5.84
   7   9  -4   40.75    3.41
   7   9  -4   38.28    3.13
   5  -9  -4   52.35    6.51
   5  -9  -4   53.78    6.63
  -5  -9   4   63.63    6.19
   5  -9  -4   72.80    6.78
  -5  -9   4   59.53    5.47
   5  -9  -4   56.77    8.36
   5   9  -4   60.08    4.54
   5   9  -4   56.26    4.35
   5   9  -4   57.77    4.65
  -5   9   4   58.01    4.68
  -5   9   4   57.17    4.61
  -5   9   4   56.36    5.00
  -3  -9   4  194.08   16.35
   3  -9  -4  174.42   16.60
   3  -9  -4  227.04   16.94
   3  -9  -4  236.88   16.86
   3  -9  -4  252.22   19.14
   3  -9  -4  211.72   15.38
  -3   9   4  213.57   15.64
   3   9  -4  209.41   15.10
  -3   9   4  208.81   15.48
   3   9  -4  222.37   15.39
  -3   9   4  216.30   15.43
   1  -9  -4  194.96   13.95
   1  -9  -4  204.49   13.96
  -1  -9   4  182.22   14.81
   1  -9  -4  177.19   15.27
   1  -9  -4  180.08   15.37
   1   9  -4  188.34   13.52
  -1   9   4  191.93   14.03
  -1   9   4  181.54   13.90
   1   9  -4  208.66   13.78
  -1  -9  -4   37.45    3.15
  -1  -9  -4   36.94    5.54
  -1  -9  -4   46.65    5.71
  -1  -9  -4   45.03    3.74
  -1  -9  -4   36.72    3.08
   1  -9   4   36.64    4.66
   1   9   4   41.78    3.44
   1   9   4   40.86    3.46
   1   9   4   34.77    3.27
  -1   9  -4   42.87    3.23
  -3  -9  -4   42.41    6.33
   3  -9   4   46.53    5.29
  -3  -9  -4   59.87    6.61
  -3  -9  -4   54.78    4.68
   3   9   4   51.61    4.19
   3   9   4   45.00    4.12
   3   9   4   52.51    4.07
  -5  -9  -4   94.47    9.72
   5  -9   4   81.55    8.93
  -5  -9  -4   85.45    7.96
  -5  -9  -4   86.93    9.92
   5  -9   4   92.38    8.27
   5   9   4  102.50    7.43
  -5   9  -4   98.96    7.18
   5   9   4  103.47    7.39
   5   9   4  105.11    7.27
  -7  -9  -4  210.67   15.19
  -7  -9  -4  179.59   17.20
   7  -9   4  191.32   15.12
  -7  -9  -4  175.68   16.95
   7   9   4  187.04   14.53
   7   9   4  209.88   14.14
  -9  -9  -4   74.56   10.73
  -9  -9  -4   83.78    8.08
   9  -9   4   83.44    5.88
   9  -9   4   75.92    7.55
  -9  -9  -4   78.64   10.76
   9   9   4   74.83    6.53
   9   9   4   91.58    6.35
   9   9   4   73.82    6.43
 -11  -9  -4   33.41    5.54
 -11  -9  -4   30.22    8.18
  11  -9   4   34.01    2.88
  11  -9   4   35.18    4.74
 -11  -9  -4   45.60    8.98
  11   9   4   28.48    3.43
  11   9   4   38.94    3.53
  11   9   4   31.38    3.64
 -13  -9  -4  111.17   15.38
 -13  -9  -4  115.73   11.33
  13  -9   4  113.62    8.51
 -13  -9  -4   94.67   14.36
  13  -9   4  118.49   10.95
  13   9   4  126.31    9.08
  13   9   4  110.95    9.18
  15  -9   4   95.22   10.48
 -15  -9  -4   72.55   14.01
 -15  -9  -4   82.90   10.41
 -15  -9  -4   85.64   15.10
  15   9   4   97.00    7.84
  15   9   4   92.79    7.62
 -17  -9  -4    6.43   11.19
  16 -10  -4   94.49    9.48
  16  10  -4  111.08    8.48
  16  10  -4  101.15    8.62
  16  10  -4   91.12    8.39
 -16  10   4   94.25    8.26
  14 -10  -4  163.36   14.45
 -14 -10   4  166.05   16.10
 -14  10   4  187.80   13.50
  14  10  -4  173.67   13.52
  14  10  -4  184.92   13.35
  14  10  -4  180.59   13.59
 -12 -10   4   46.49    6.67
  12 -10  -4   50.66    7.01
  12 -10  -4   51.83    6.22
 -12  10   4   61.33    4.93
  12  10  -4   53.35    4.68
  12  10  -4   52.19    5.07
  10 -10  -4   10.01    4.35
 -10 -10   4   16.64    3.08
 -10 -10   4   13.04    3.38
  10 -10  -4   18.54    5.53
  10 -10  -4   14.15    3.29
  10  10  -4    8.56    1.93
 -10  10   4   10.94    1.88
  10  10  -4   10.22    1.87
  10  10  -4   15.88    1.80
   8 -10  -4  167.09   18.49
   8 -10  -4  197.11   17.25
  -8 -10   4  217.92   15.69
  -8 -10   4  198.28   15.91
  -8  10   4  208.80   14.87
   8  10  -4  206.82   14.89
   8  10  -4  195.31   14.71
   8  10  -4  210.05   14.52
  -8  10   4  204.70   14.80
   6 -10  -4   88.80   11.86
  -6 -10   4   95.51    9.00
  -6 -10   4  108.89    9.03
   6 -10  -4  125.44   10.11
   6 -10  -4   94.48    9.62
   6 -10  -4  106.25   10.36
   6 -10  -4  102.06    9.03
  -6  10   4  101.36    7.95
  -6  10   4   95.73    8.54
   6  10  -4  107.52    7.57
  -6  10   4  108.11    7.93
  -4 -10   4   51.62    6.02
   4 -10  -4   53.10    4.32
   4 -10  -4   53.54    6.38
   4 -10  -4   45.40    6.56
   4 -10  -4   55.67    6.30
   4 -10  -4   53.45    8.22
   4  10  -4   49.98    3.96
  -4  10   4   58.44    4.70
  -4  10   4   53.61    4.40
  -4  10   4   52.65    4.27
   2 -10  -4   27.78    4.53
  -2 -10   4   26.40    4.02
   2 -10  -4   35.26    5.30
   2 -10  -4   26.73    3.50
   2 -10  -4   26.87    2.76
  -2  10   4   22.12    2.44
  -2  10   4   25.97    2.78
   2  10  -4   28.20    2.18
  -2  10   4   26.77    2.61
   2  10  -4   27.50    2.51
   0 -10   4  110.66   10.24
   0 -10  -4  120.57   10.95
   0 -10  -4  121.52    8.99
   0 -10  -4  104.91   10.90
   0 -10  -4  116.16    8.90
   0 -10  -4  121.40    9.24
   0  10  -4  126.84    8.67
   0  10   4  124.20    9.20
   0  10   4  121.23    8.96
   0  10   4  122.37    9.11
   0  10  -4  127.66    8.93
   2 -10   4  334.83   25.70
  -2 -10  -4  395.02   27.26
  -2 -10  -4  331.52   26.79
  -2 -10  -4  358.88   25.20
   2  10   4  325.72   24.87
   2  10   4  354.19   24.95
   2  10   4  321.43   24.69
  -2  10  -4  363.76   24.71
   4 -10   4  128.24   10.55
  -4 -10  -4  131.29   12.06
  -4 -10  -4  135.45   10.14
  -4 -10  -4  119.10   12.34
   4  10   4  107.82    9.26
  -4  10  -4  135.38    9.36
   4  10   4  130.29    9.57
  -6 -10  -4   -3.49    4.15
  -6 -10  -4    5.21    5.01
   6 -10   4    1.51    2.01
  -6 -10  -4    4.08    2.20
  -6  10  -4    1.62    1.22
   6  10   4    1.27    0.89
   6  10   4    1.49    1.15
   6  10   4    2.30    1.27
  -8 -10  -4  139.64   14.10
  -8 -10  -4   91.76   12.98
  -8 -10  -4  141.07   11.34
   8 -10   4  121.51   10.86
   8  10   4  147.54    9.58
   8  10   4  118.66    9.79
   8  10   4  128.77    9.95
 -10 -10  -4  154.87   16.74
 -10 -10  -4  164.93   16.75
 -10 -10  -4  167.74   14.11
  10 -10   4  150.65   13.41
  10  10   4  158.61   12.29
  10  10   4  175.79   11.95
 -12 -10  -4   41.55   10.08
  12 -10   4   34.40    5.42
 -12 -10  -4   40.27    6.38
 -12 -10  -4   39.81   10.61
  12  10   4   41.18    4.34
  12  10   4   40.50    4.06
 -14 -10  -4   -4.05    8.25
  14 -10   4   -1.15    3.70
 -14 -10  -4   -1.04    4.27
 -14 -10  -4    7.24    7.92
  14  10   4   -3.76    1.90
  14  10   4    1.95    1.70
  16 -10   4   11.89    5.87
 -16 -10  -4   15.01    6.17
 -16 -10  -4   22.23   13.03
 -16 -10  -4   20.74   11.52
  16  10   4   18.45    3.30
  16  10   4   15.93    2.93
  15 -11  -4   -1.41    3.25
 -15 -11   4    7.62    5.00
 -15  11   4    4.12    2.01
  15  11  -4    1.14    1.89
  15  11  -4    7.23    2.64
  15  11  -4   -5.63    2.26
 -13 -11   4    8.89    4.44
  13 -11  -4   16.38    3.97
 -13  11   4   12.54    2.30
  13  11  -4   17.80    2.81
  13  11  -4   17.94    3.90
  13  11  -4   17.54    2.68
 -11 -11   4  105.43    9.86
  11 -11  -4  109.85    9.65
  11 -11  -4  103.16   11.66
  11  11  -4  103.34    7.82
  11  11  -4   97.47    8.20
  11  11  -4   95.00    8.12
 -11  11   4  101.11    8.05
   9 -11  -4  152.16   17.52
  -9 -11   4  185.57   14.81
   9 -11  -4  191.64   14.66
  -9 -11   4  182.16   14.24
   9 -11  -4  178.21   16.22
   9  11  -4  162.92   13.49
  -9  11   4  193.96   13.43
  -9  11   4  183.77   13.41
   9  11  -4  160.58   13.39
   9  11  -4  199.57   13.09
   7 -11  -4   14.35    4.55
  -7 -11   4    8.46    3.10
  -7 -11   4    6.76    2.59
   7 -11  -4    0.57    4.33
   7 -11  -4   -7.55    5.34
   7 -11  -4    5.04    3.02
   7  11  -4    8.13    1.22
  -7  11   4    4.95    1.46
  -7  11   4    5.08    1.38
   7  11  -4    4.15    1.43
  -5 -11   4   37.43    4.96
   5 -11  -4   46.73    6.53
   5 -11  -4   55.74    6.75
   5 -11  -4   34.83    7.38
   5 -11  -4   45.09    3.90
   5 -11  -4   57.54    7.16
  -5 -11   4   53.17    6.24
  -5  11   4   43.29    4.68
  -5  11   4   44.94    4.02
  -5  11   4   39.10    3.88
   5  11  -4   46.03    3.49
   5  11  -4   44.25    4.04
   3 -11  -4  203.68   15.75
   3 -11  -4  184.18   13.65
   3 -11  -4  212.18   18.04
   3 -11  -4  188.63   15.21
  -3 -11   4  174.49   14.90
   3 -11  -4  176.19   15.37
   3  11  -4  186.86   13.56
  -3  11   4  180.60   13.89
  -3  11   4  181.75   13.67
  -3  11   4  199.44   13.85
   3  11  -4  173.06   13.21
   1 -11  -4  219.31   17.86
   1 -11  -4  215.23   15.86
   1 -11  -4  234.54   16.08
   1 -11  -4  213.55   15.96
  -1 -11   4  200.87   17.01
   1 -11  -4  185.82   17.58
  -1  11   4  227.41   15.79
  -1  11   4  229.89   16.15
   1  11  -4  224.57   15.79
   1  11  -4  216.98   15.47
   1 -11   4   12.81    3.43
  -1 -11  -4   15.66    2.28
  -1 -11  -4   16.64    4.45
  -1 -11  -4   14.07    1.79
  -1 -11  -4   15.00    4.67
   1  11   4   12.59    1.75
  -1  11  -4   17.98    1.98
   1  11   4   16.91    2.28
   3 -11   4   64.15    6.74
  -3 -11  -4   59.68    9.10
  -3 -11  -4   79.95    9.07
  -3 -11  -4   68.65    5.82
   3  11   4   61.79    4.92
  -3  11  -4   60.29    5.02
   3  11   4   58.24    5.31
   3  11   4   59.43    5.28
  -5 -11  -4   83.59    7.13
  -5 -11  -4   74.84   10.80
  -5 -11  -4   75.84   10.08
   5 -11   4   70.51    7.60
   5  11   4   76.93    6.36
  -5  11  -4   81.77    6.13
   5  11   4   69.71    6.24
   5  11   4   75.53    5.87
  -7 -11  -4  180.71   14.10
  -7 -11  -4  166.72   16.75
   7 -11   4  173.37   14.08
  -7 -11  -4  179.21   17.40
   7  11   4  159.12   12.47
   7  11   4  180.84   12.96
   7  11   4  171.83   12.95
   9 -11   4   55.74    6.39
  -9 -11  -4   52.31    9.78
  -9 -11  -4   56.74    9.78
  -9 -11  -4   51.77    6.98
   9  11   4   49.55    4.89
   9  11   4   53.83    4.83
   9  11   4   53.00    4.40
  11 -11   4   22.40    4.60
 -11 -11  -4   25.37    7.90
 -11 -11  -4   16.78    8.18
 -11 -11  -4   37.76    5.83
  11  11   4   21.96    3.18
  11  11   4   23.53    3.05
 -13 -11  -4  124.69   16.59
 -13 -11  -4  118.98   16.79
 -13 -11  -4  133.17   12.50
  13 -11   4  139.01   12.61
  13  11   4  123.93   10.11
 -15 -11  -4   69.95   15.19
  15 -11   4   73.20    8.69
 -15 -11  -4   53.06    8.13
 -15 -11  -4   74.09   16.02
  15  11   4   53.83    5.88
  15  11   4   69.41    6.48
 -14 -12   4   70.78    9.05
  14 -12  -4   62.56    7.69
 -14  12   4   62.93    5.78
  14  12  -4   53.35    6.24
  14  12  -4   52.34    5.79
 -12 -12   4   25.68    5.01
  12 -12  -4   27.08    5.06
  12  12  -4   22.30    3.35
  12  12  -4   41.70    4.26
  12  12  -4   32.90    3.74
 -12  12   4   28.56    3.60
  10 -12  -4    9.88    3.68
 -10 -12   4    5.43    3.24
 -10 -12   4   11.92    3.50
  10 -12  -4    9.49    6.80
  10  12  -4   11.49    1.69
  10  12  -4    8.64    2.01
 -10  12   4    6.88    1.80
   8 -12  -4   33.06    8.83
  -8 -12   4   46.51    5.68
   8 -12  -4   54.71    8.00
  -8 -12   4   46.83    6.23
   8 -12  -4   41.06    5.91
  -8  12   4   48.12    4.55
   8  12  -4   52.84    4.19
   8  12  -4   58.76    4.70
  -8  12   4   50.87    4.60
   6 -12  -4  123.85    9.53
   6 -12  -4  133.25   12.57
  -6 -12   4  133.20   11.17
   6 -12  -4  154.82   12.57
  -6 -12   4  130.34   10.98
   6 -12  -4  126.92   11.32
   6 -12  -4   98.99   14.42
   6 -12  -4  130.17   12.23
  -6  12   4  126.36   10.26
   6  12  -4  131.83    9.21
   6  12  -4  110.52    9.60
  -6  12   4  121.37    9.63
  -6  12   4  128.03    9.61
  -4 -12   4   60.58    7.54
   4 -12  -4   69.61    8.17
   4 -12  -4   66.83   10.95
   4 -12  -4   82.08    8.77
  -4 -12   4   61.81    6.73
   4 -12  -4   67.77    7.60
   4 -12  -4   67.47    5.53
  -4  12   4   60.51    5.88
  -4  12   4   62.75    5.45
   4  12  -4   62.36    5.43
   4  12  -4   68.49    4.92
  -4  12   4   57.93    5.24
   2 -12  -4   -3.00    3.44
   2 -12  -4    6.74    1.72
   2 -12  -4    1.40    4.03
  -2 -12   4    3.28    3.27
   2 -12  -4    6.67    1.70
   2  12  -4    4.17    0.92
  -2  12   4    3.75    1.24
  -2  12   4    3.84    1.36
   2  12  -4    3.81    1.25
  -2  12   4    4.36    1.65
   0 -12   4  115.40   10.74
   0 -12  -4  114.92   11.48
   0 -12  -4  123.52    9.34
   0 -12  -4  125.06   12.22
   0 -12  -4  115.06    8.94
   0  12   4  118.01    8.80
   0  12  -4  112.74    8.51
   0  12   4  110.62    9.17
   0  12   4  128.57    9.10
   0  12  -4  116.66    8.87
  -2 -12  -4  190.06   14.04
  -2 -12  -4  168.30   16.47
   2 -12   4  182.96   14.95
  -2 -12  -4  182.75   16.74
   2  12   4  165.48   13.56
  -2  12  -4  195.16   13.47
   2  12   4  188.26   13.73
   2  12   4  183.93   13.32
  -4 -12  -4   25.40    7.04
  -4 -12  -4   31.92    4.28
   4 -12   4   31.46    4.89
  -4 -12  -4   36.29    7.59
   4  12   4   29.30    3.53
   4  12   4   42.23    3.16
   4  12   4   31.94    3.59
  -4  12  -4   30.22    3.40
  -6 -12  -4   14.56    6.25
  -6 -12  -4   14.67    7.02
   6 -12   4   13.53    3.46
  -6 -12  -4    9.43    3.65
  -6  12  -4   11.31    2.19
   6  12   4   13.40    2.35
   6  12   4   13.02    1.75
   6  12   4   14.79    2.31
  -8 -12  -4   57.40   10.21
   8 -12   4   48.75    6.35
  -8 -12  -4   46.40    6.43
  -8 -12  -4   26.02    7.82
   8  12   4   54.28    4.16
   8  12   4   44.46    4.60
   8  12   4   48.66    4.75
 -10 -12  -4   74.27   12.55
  10 -12   4   66.42    8.03
 -10 -12  -4   72.04    8.75
 -10 -12  -4   73.78   12.62
  10  12   4   53.38    5.67
  10  12   4   66.24    5.94
 -12 -12  -4   38.36   10.91
 -12 -12  -4   37.83   10.20
  12 -12   4   20.11    5.04
 -12 -12  -4   38.72    6.68
  12  12   4   27.01    3.79
  12  12   4   34.78    3.97
 -14 -12  -4    2.18    5.21
 -14 -12  -4   15.89    9.99
  14 -12   4    7.54    5.45
 -14 -12  -4   19.00   10.62
  14  12   4    6.72    2.88
  14  12   4    7.19    2.25
  13 -13  -4    7.82    4.44
 -13 -13   4    9.70    4.86
 -13  13   4   15.46    2.58
  13  13  -4   14.34    2.78
  11 -13  -4   36.10    5.29
 -11 -13   4   31.53    5.60
  11  13  -4   22.19    3.32
 -11  13   4   27.99    3.58
   9 -13  -4   40.58   10.38
   9 -13  -4   55.81    6.95
  -9 -13   4   65.10    7.34
  -9 -13   4   54.68    7.25
  -9  13   4   64.83    5.34
   9  13  -4   49.93    5.35
  -9  13   4   64.22    5.29
  -7 -13   4   30.55    4.93
   7 -13  -4   36.77    6.87
   7 -13  -4   24.36   10.06
  -7 -13   4   25.94    4.87
   7 -13  -4   27.31    5.26
   7  13  -4   37.82    3.77
  -7  13   4   28.35    3.43
  -7  13   4   33.01    3.58
   5 -13  -4   38.47    6.49
  -5 -13   4   27.72    4.69
   5 -13  -4   20.04    5.36
   5 -13  -4   22.21    6.30
  -5 -13   4   20.42    4.75
   5 -13  -4   29.82    3.36
   5 -13  -4   28.47    9.36
   5  13  -4   25.49    2.59
  -5  13   4   26.50    3.00
  -5  13   4   26.93    3.19
   5  13  -4   28.25    3.37
  -5  13   4   26.53    3.78
   3 -13  -4  150.82   14.32
   3 -13  -4  166.21   14.64
   3 -13  -4  166.46   17.76
   3 -13  -4  168.74   12.43
   3 -13  -4  172.62   12.12
  -3 -13   4  162.20   13.85
   3 -13  -4  130.25   14.39
   3  13  -4  162.94   11.94
  -3  13   4  147.55   11.89
  -3  13   4  166.41   12.33
   3  13  -4  149.48   11.40
   1 -13  -4   67.74    9.20
   1 -13  -4   63.42    9.15
  -1 -13   4   55.44    7.13
   1 -13  -4   59.58    5.63
   1 -13  -4   64.47    5.62
  -1  13   4   50.39    5.52
  -1  13   4   74.28    5.10
   1  13  -4   57.13    4.58
  -1  13   4   50.99    5.12
   1  13  -4   55.72    5.25
  -1 -13  -4    6.95    5.62
  -1 -13  -4    0.57    5.06
  -1 -13  -4    2.29    1.83
   1 -13   4    2.91    3.55
   1  13   4   -0.64    1.38
   1  13   4    0.89    1.31
  -1  13  -4    1.30    1.40
   1  13   4    0.29    1.33
  -3 -13  -4   11.67    2.81
  -3 -13  -4   13.36    6.44
   3 -13   4   12.09    3.96
  -3 -13  -4    9.98    5.87
   3  13   4   12.04    2.21
  -3  13  -4   13.60    2.27
   3  13   4   11.71    2.26
   3  13   4   14.06    1.76
  -5 -13  -4   81.58   11.68
   5 -13   4   76.75    8.31
  -5 -13  -4   67.92   11.30
  -5 -13  -4   78.06    7.86
   5  13   4   71.45    5.70
   5  13   4   69.02    6.26
   5  13   4   67.27    6.21
  -5  13  -4   73.76    6.26
  -7 -13  -4   36.81    8.94
  -7 -13  -4   27.84    8.34
  -7 -13  -4   25.35    5.34
   7 -13   4   29.46    5.27
   7  13   4   33.09    4.07
   7  13   4   41.74    3.36
   7  13   4   29.70    3.84
  -9 -13  -4    6.32    8.21
  -9 -13  -4    7.81    4.65
   9 -13   4   14.57    4.53
  -9 -13  -4   29.23    8.60
   9  13   4   12.47    2.62
   9  13   4    8.92    2.16
 -11 -13  -4   -3.21    8.20
 -11 -13  -4   -4.60    4.71
 -11 -13  -4   -6.88    8.04
  11  13   4    0.50    1.91
  11  13   4    1.49    2.27
  12 -14  -4    4.48    4.77
 -12 -14   4    5.36    4.51
  12  14  -4    6.13    2.34
 -10 -14   4   13.35    4.44
  10 -14  -4   21.53    4.97
  10  14  -4   11.37    2.66
 -10  14   4   14.62    2.57
  -8 -14   4    3.85    3.41
   8 -14  -4    6.43    7.70
   8 -14  -4    8.17    4.22
   8 -14  -4   21.31   10.87
  -8  14   4    8.48    2.03
   8  14  -4   12.62    2.38
  -8  14   4    7.48    2.09
   6 -14  -4   22.11    7.07
   6 -14  -4   23.88    5.04
   6 -14  -4   18.39    7.22
  -6 -14   4   17.15    4.04
  -6 -14   4   17.77    4.92
   6 -14  -4    7.50    9.16
  -6  14   4   13.22    2.50
   6  14  -4   22.22    2.89
  -6  14   4   17.54    3.47
  -6  14   4   20.85    2.65
   4 -14  -4   21.27    5.89
  -4 -14   4   12.66    3.54
  -4 -14   4   16.12    4.94
   4 -14  -4   13.38    2.55
   4 -14  -4   12.87    3.41
   4 -14  -4    6.21    7.89
   4 -14  -4    7.31    6.24
   4 -14  -4   12.38    6.51
   4  14  -4   11.63    2.25
  -4  14   4   10.03    2.08
  -4  14   4    8.54    2.69
  -4  14   4   11.72    2.11
   2 -14  -4    1.51    2.07
  -2 -14   4   -1.53    4.07
   2 -14  -4   -1.20    6.18
   2 -14  -4   -4.37    4.29
   2 -14  -4   12.19    5.85
   2 -14  -4    1.36    6.98
  -2  14   4    0.42    1.44
  -2  14   4    2.12    1.43
   2  14  -4   -0.51    1.68
  -2  14   4   -0.95    1.65
   0 -14  -4    2.57    5.76
   0 -14  -4   -8.55    5.61
   0 -14  -4    6.91    2.28
   0 -14   4    7.25    4.37
   0  14   4    7.12    1.85
   0  14   4    2.32    2.00
   0  14  -4    3.20    2.05
   0  14   4    3.12    1.49
  -2 -14  -4   27.05    7.93
  -2 -14  -4   36.31    8.26
   2 -14   4   35.90    6.13
  -2 -14  -4   38.35    4.98
   2  14   4   36.06    3.80
   2  14   4   29.28    3.50
   2  14   4   31.76    4.01
  -4 -14  -4   36.95    5.37
  -4 -14  -4   38.63    9.00
   4 -14   4   52.33    6.81
  -4 -14  -4   41.35    8.94
   4  14   4   40.84    4.44
   4  14   4   42.80    4.60
  -4  14  -4   52.30    4.96
  -6 -14  -4    2.78    6.80
  -6 -14  -4   -4.44    5.98
   6 -14   4   -1.84    3.80
  -6 -14  -4   -1.12    4.02
   6  14   4    5.20    1.50
   6  14   4    1.78    1.96
   6  14   4    0.65    1.67
  -8 -14  -4   42.75   10.31
  -8 -14  -4   19.75    5.71
  -8 -14  -4   38.70    9.65
   8  14   4   36.01    4.23
   8  14   4   34.11    4.04
 -10 -14  -4   16.84    5.88
 -10 -14  -4    7.27    8.79
 -10 -14  -4    7.36    8.19
  10 -14   4    6.92    5.27
  10  14   4    5.14    2.62
  10  14   4    5.97    2.45
  -9 -15   4   -5.65    3.34
   9 -15  -4   -0.02    4.44
   9  15  -4   -1.05    2.14
  -9  15   4   -0.79    1.81
  -9  15   4    0.39    1.88
  -7 -15   4   -5.60    3.21
   7 -15  -4   -2.46    4.24
   7 -15  -4    4.10   11.26
   7 -15  -4    9.89    8.71
   7 -15  -4   -5.45    4.11
   7  15  -4    2.17    2.19
  -7  15   4   -1.29    1.75
  -7  15   4    2.72    1.85
   5 -15  -4    2.16    6.59
  -5 -15   4    1.74    3.23
   5 -15  -4   -6.44    9.00
  -5 -15   4   -0.30    4.87
   5 -15  -4   -3.32    3.74
   5 -15  -4    1.88    4.46
  -5  15   4    9.41    3.10
  -5  15   4    3.78    1.86
   5  15  -4    3.19    1.96
  -5  15   4   -0.76    1.66
  -3 -15   4    2.17    3.11
   3 -15  -4   -2.14    8.12
   3 -15  -4   -2.64    5.47
   3 -15  -4   -8.72    7.47
  -3 -15   4   -1.78    5.12
   3 -15  -4   19.97    7.51
  -3  15   4   -0.40    1.50
  -3  15   4    1.03    1.77
   3  15  -4   -0.18    1.99
  -3  15   4   -2.35    2.17
  -1 -15   4    1.72    4.68
   1 -15  -4  -11.35    7.10
   1 -15  -4    7.79    6.72
   1 -15  -4   -2.95    2.35
   1  15  -4   -1.57    1.94
  -1  15   4   -0.89    2.20
  -1  15   4    1.33    1.69
  -1  15   4    1.05    1.61
  -1 -15  -4   -0.73    6.36
   1 -15   4   13.03    5.17
  -1 -15  -4    9.05    7.69
  -1 -15  -4   -3.07    3.18
   1  15   4   -0.03    1.73
   1  15   4    2.07    2.03
  -1  15  -4   -2.08    2.27
   1  15   4    2.27    1.57
   3 -15   4   13.56    5.49
  -3 -15  -4    9.78    3.81
  -3 -15  -4   11.21    8.16
  -3 -15  -4   19.14    8.20
   3  15   4   13.38    2.93
   3  15   4   21.45    2.43
   3  15   4   13.22    2.70
  -3  15  -4   19.74    3.51
   5 -15   4   11.90    5.45
  -5 -15  -4   18.82    8.78
  -5 -15  -4   12.54    7.54
  -5 -15  -4   20.92    5.04
  -5  15  -4   19.71    4.14
   5  15   4   12.03    2.66
   5  15   4   16.51    2.87
   5  15   4   15.32    2.40
   7 -15   4    2.49    5.14
  -7 -15  -4    3.99    7.75
  -7 -15  -4   11.93    5.36
  -7 -15  -4    2.32    8.26
   7  15   4    3.76    2.29
   7  15   4   11.94    2.58
   9 -15   4   -3.77    5.09
  -9 -15  -4  -15.01    8.41
  -9 -15  -4   -4.91    5.64
  -9 -15  -4   -8.58    8.78
   9  15   4    4.09    2.56
   9  15   4    4.77    2.40
   6 -16  -4   19.00   10.74
  -6 -16   4    1.65    3.86
   6 -16  -4    1.02   12.60
   6 -16  -4   -1.13    4.91
  -6  16   4    5.00    2.16
  -6  16   4    3.13    3.41
   6  16  -4    5.39    2.55
  -6  16   4    5.17    2.19
  -4 -16   4    2.72    3.74
   4 -16  -4   12.21    5.17
   4 -16  -4   12.52    9.64
   4 -16  -4    8.84   11.03
   4 -16  -4   -1.54    6.96
  -4  16   4   15.31    3.60
  -4  16   4    9.59    2.29
  -4  16   4    7.31    2.32
   4  16  -4    7.45    2.70
   2 -16  -4   -0.78    6.02
  -2 -16   4    1.19    3.26
   2 -16  -4    8.76    9.83
   2 -16  -4   12.51    8.48
   2 -16  -4    6.15    8.92
  -2 -16   4   -0.55    6.13
  -2  16   4    5.72    2.22
  -2  16   4    3.87    2.67
   2  16  -4   -0.10    2.46
  -2  16   4    5.08    2.00
   0 -16  -4   16.96    9.06
   0 -16  -4    5.33    3.90
   0 -16   4    1.74    6.29
   0 -16  -4    9.67    8.41
   0  16  -4    9.34    2.91
   0  16   4    8.79    2.17
   0  16   4    8.20    2.32
   0  16   4   10.44    2.86
  -2 -16  -4    2.05    3.99
   2 -16   4    4.05    5.91
  -2 -16  -4   -9.08    7.56
  -2 -16  -4    5.67    8.48
   2  16   4   -0.62    1.86
   2  16   4    2.13    1.97
   2  16   4    0.86    2.19
  -2  16  -4    0.81    2.98
  -4 -16  -4    0.24    4.99
   4 -16   4    1.16    6.30
  -4 -16  -4   -6.36    7.68
  -4 -16  -4   -8.43    8.25
   4  16   4    3.29    2.34
   4  16   4    2.99    2.32
  -4  16  -4   -0.83    3.44
   4  16   4   -2.27    2.08
  -6 -16  -4    8.18    8.49
  -6 -16  -4    3.32    5.77
   6 -16   4   -9.78    5.65
  -6 -16  -4  -12.54    8.66
   6  16   4    0.31    2.36
   6  16   4   -1.32    2.24
  -3 -17   4   10.51    4.37
  -1 -17   4    8.62    4.39
   1 -17  -4    5.70   10.62
   1 -17  -4    7.66    7.45
   1 -17  -4    0.91   11.00
   1 -17  -4   23.10   10.53
  -1  17   4    4.08    2.53
  -1  17   4    4.48    3.10
   1  17  -4    4.16    3.18
  -1  17   4    9.67    2.63
  -1 -17  -4   16.88    9.77
  -1 -17  -4   -5.43    9.51
   1 -17   4   18.27    7.90
  -1  17  -4    6.83    3.62
   1  17   4    5.37    2.56
   1  17   4    9.58    2.69
   1  17   4    8.46    3.24
 -20   0   5   10.52    7.41
 -18   0   5    0.01    4.80
  18   0  -5    2.65    2.28
 -16   0   5    2.11    1.14
 -16   0   5    4.20    4.63
  16   0  -5   -1.96    2.71
 -16   0   5    5.54    4.18
  16   0  -5    2.54    1.80
 -14   0   5   -1.61    3.28
  14   0  -5   -2.76    1.75
 -14   0   5   -0.94    2.31
 -14   0   5   -3.43    2.82
 -14   0   5    0.74    0.81
  14   0  -5   -0.34    1.62
 -12   0   5   -0.23    0.61
  12   0  -5    0.68    1.96
 -12   0   5   -2.66    1.91
  12   0  -5   -0.05    1.30
  12   0  -5   -1.76    1.69
 -10   0   5    0.35    1.58
  10   0  -5    1.22    1.12
  10   0  -5   -0.44    1.64
 -10   0   5    0.60    0.52
  10   0  -5    0.64    2.13
   8   0  -5    2.26    2.23
  -8   0   5   -2.93    1.21
  -8   0   5    1.59    1.12
   8   0  -5    2.59    1.75
  -8   0   5    0.01    0.44
   8   0  -5    1.89    1.15
   6   0  -5   -1.23    1.92
   6   0  -5    0.40    0.88
  -6   0   5    0.64    0.73
  -6   0   5   -0.12    0.48
   6   0  -5    0.94    1.66
  -6   0   5   -1.17    0.86
   4   0  -5    0.01    1.47
  -4   0   5   -0.18    0.29
   4   0  -5   -0.53    1.58
  -4   0   5    0.15    0.55
  -4   0   5    0.71    0.89
   4   0  -5   -0.04    0.89
   4   0  -5    2.27    2.44
   4   0  -5   -0.44    2.02
   2   0  -5    0.28    2.28
   2   0  -5    0.30    1.14
   2   0  -5    1.11    1.66
   2   0  -5   -0.11    3.36
  -2   0   5    1.64    0.98
   2   0  -5   -0.90    2.84
  -2   0   5    0.00    0.28
   0   0  -5   -0.59    0.94
   0   0  -5   -2.45    3.16
   0   0  -5    2.21    3.21
   0   0   5    2.48    1.00
   0   0  -5    0.06    2.16
   0   0  -5    0.98    1.51
   0   0   5    0.43    0.27
   2   0   5    0.05    0.35
   2   0   5   -0.14    0.79
  -2   0  -5    1.10    1.44
  -2   0  -5   -1.32    2.80
  -2   0  -5   -3.24    2.97
  -2   0  -5    1.03    1.24
  -2   0  -5    1.00    2.08
  -2   0  -5   -0.02    0.80
   2   0   5   -0.36    0.27
   4   0   5    0.07    0.75
  -4   0  -5    1.07    1.37
  -4   0  -5   -2.00    2.96
  -4   0  -5   -0.31    1.23
  -4   0  -5   -0.46    1.78
  -4   0  -5    3.87    3.72
  -6   0  -5    0.53    3.33
  -6   0  -5    2.53    3.60
  -6   0  -5   -1.12    1.31
  -6   0  -5    2.34    1.56
  -6   0  -5   -1.03    1.78
   6   0   5   -0.31    0.73
  -8   0  -5    0.08    3.47
  -8   0  -5    2.40    4.08
   8   0   5    0.21    0.48
  -8   0  -5   -0.01    1.80
   8   0   5    0.22    1.02
   8   0   5    0.13    0.33
  10   0   5    1.24    1.35
  10   0   5   -0.78    0.57
  10   0   5    0.30    0.42
 -10   0  -5    7.54    4.94
 -10   0  -5   -2.72    4.53
 -10   0  -5   -1.44    1.95
  12   0   5    0.39    0.74
  12   0   5   -2.05    1.67
 -12   0  -5   -1.23    5.20
  12   0   5    0.07    0.52
 -12   0  -5    1.76    2.62
 -12   0  -5   -0.97    5.92
 -14   0  -5   -7.84    8.74
 -14   0  -5   -0.42    2.94
  14   0   5   -0.07    1.10
 -14   0  -5   -9.08    9.30
  14   0   5    0.08    0.71
 -16   0  -5   -4.53    4.19
  16   0   5    1.21    0.98
 -16   0  -5    8.08   10.82
  16   0   5   -1.93    2.76
 -16   0  -5   -0.53   11.00
  16   0   5   -0.16    1.42
 -18   0  -5    9.61   14.70
 -18   0  -5    7.34    5.47
 -18   0  -5   11.22   14.07
  18   0   5   -2.41    3.78
 -19  -1   5   -6.76    5.38
  19  -1  -5    2.93    2.59
 -19   1   5   -2.75    6.26
  19   1  -5    0.90    2.30
 -17  -1   5   33.51    5.99
 -17  -1   5   28.58    6.51
  17  -1  -5   18.76    3.52
  17   1  -5   23.51    3.63
 -17   1   5   27.38    3.28
 -17   1   5   31.64    6.32
 -15  -1   5   -0.63    3.55
  15  -1  -5    5.31    2.34
 -15  -1   5    1.32    3.29
 -15  -1   5   -3.70    3.77
 -15  -1   5    2.87    0.98
  15  -1  -5    3.04    1.93
 -15   1   5    5.53    4.08
  15   1  -5   -1.60    2.46
 -15   1   5   -1.23    2.88
 -15   1   5    1.48    1.00
  15   1  -5    0.45    1.62
  13  -1  -5   42.51    5.22
  13  -1  -5   30.16    4.40
  13  -1  -5   36.29    4.20
 -13  -1   5   39.58    3.07
 -13  -1   5   38.16    4.75
  13   1  -5   36.35    4.21
 -13   1   5   39.96    3.18
  13   1  -5   34.23    4.30
  13   1  -5   41.72    5.66
 -13   1   5   35.28    4.78
 -13   1   5   39.56    5.23
 -13   1   5   37.32    4.82
  11  -1  -5   32.05    3.99
 -11  -1   5   28.35    2.30
  11  -1  -5   22.08    4.09
  11  -1  -5   23.92    3.26
 -11  -1   5   27.75    3.79
 -11   1   5   27.33    2.38
  11   1  -5   28.14    3.69
  11   1  -5   33.29    4.37
 -11   1   5   24.72    7.50
 -11   1   5   25.88    3.60
  11   1  -5   30.31    3.19
   9  -1  -5   45.74    4.78
  -9  -1   5   35.80    3.78
   9  -1  -5   38.30    3.93
  -9  -1   5   38.86    4.24
   9  -1  -5   37.42    5.24
  -9  -1   5   37.42    2.95
   9   1  -5   43.59    5.03
   9   1  -5   39.48    3.78
   9   1  -5   30.20    4.23
  -9   1   5   40.79    3.88
  -9   1   5   37.81    3.04
  -9   1   5   39.12    7.61
  -7  -1   5    2.57    0.96
   7  -1  -5    3.72    2.66
  -7  -1   5    0.35    1.17
  -7  -1   5    1.51    0.51
   7  -1  -5    0.50    1.94
   7  -1  -5    0.24    1.16
  -7   1   5    1.51    1.04
  -7   1   5   -3.76    5.25
   7   1  -5    0.72    1.69
  -7   1   5    0.67    1.15
  -7   1   5    0.83    0.51
   7   1  -5    1.43    1.08
   7   1  -5    3.77    1.72
  -5  -1   5  136.14   10.00
   5  -1  -5  131.81   10.90
  -5  -1   5  132.07    9.56
   5  -1  -5  109.78   11.65
   5  -1  -5  142.18   11.08
  -5  -1   5  130.39    9.41
   5  -1  -5  127.81   10.01
   5   1  -5  129.14   10.57
  -5   1   5  136.78    9.34
   5   1  -5  144.31    9.84
  -5   1   5  124.89    9.43
  -5   1   5  122.87    9.86
   5   1  -5  127.09   11.34
  -5   1   5  136.57   13.10
  -5   1   5  119.08    9.39
  -3  -1   5   48.71    3.88
   3  -1  -5   47.33    5.29
   3  -1  -5   38.50    5.83
   3  -1  -5   58.75    6.91
   3  -1  -5   51.10    6.50
   3  -1  -5   51.33    4.41
  -3  -1   5   53.47    4.37
  -3   1   5   52.21    3.65
   3   1  -5   43.89    4.07
  -3   1   5   48.64    7.39
   3   1  -5   58.19    6.27
  -3   1   5   48.15    3.87
   3   1  -5   50.49    4.51
   3   1  -5   43.85    5.02
   3   1  -5   39.89    5.74
  -3   1   5   48.00    4.20
   1  -1  -5   -0.41    1.59
  -1  -1   5    1.31    0.29
   1  -1  -5   -1.42    2.79
  -1  -1   5    1.11    0.96
   1  -1  -5    1.05    1.06
   1  -1  -5   -0.75    2.19
   1  -1  -5   -0.39    3.01
  -1   1   5    0.98    0.39
   1   1  -5    0.71    1.59
   1   1  -5   -0.41    2.00
   1   1  -5   -1.53    2.68
  -1   1   5   -0.55    0.85
   1   1  -5    5.72    3.69
   1   1  -5   -0.33    1.23
  -1  -1  -5   16.97    4.45
  -1  -1  -5   18.91    2.43
   1  -1   5   17.34    1.45
  -1  -1  -5   20.22    2.14
  -1  -1  -5   21.99    4.98
  -1  -1  -5   20.90    2.85
   1  -1   5   16.67    2.28
  -1  -1  -5   12.07    3.26
   1   1   5   20.87    1.63
   1   1   5   18.58    1.55
   1   1   5   17.17    2.08
  -1   1  -5   10.34    3.07
  -1   1  -5   17.13    4.77
  -1   1  -5   18.73    4.68
  -1   1  -5   24.02    3.27
  -1   1  -5   17.72    2.36
  -3  -1  -5   10.51    3.72
  -3  -1  -5   11.53    3.18
   3  -1   5    7.88    1.40
  -3  -1  -5    8.58    1.31
  -3  -1  -5   11.80    2.00
  -3  -1  -5    6.72    1.80
  -3  -1  -5    8.07    3.57
   3   1   5    9.01    0.95
  -3   1  -5    9.60    1.53
   3   1   5   10.20    1.49
  -3   1  -5   12.78    2.43
  -3   1  -5    7.65    4.08
  -3   1  -5   10.98    4.11
   3   1   5    8.90    0.99
  -3   1  -5   11.32    2.36
  -3   1  -5   11.15    3.00
  -3   1  -5    9.28    0.89
  -5  -1  -5   58.81    7.95
   5  -1   5   63.49    4.77
  -5  -1  -5   68.10    5.94
   5  -1   5   65.20    5.44
  -5  -1  -5   70.86    8.07
  -5   1  -5   67.38    8.61
  -5   1  -5   64.03    6.66
  -5   1  -5   63.01    8.92
  -5   1  -5   75.15    6.07
   5   1   5   70.96    4.89
   5   1   5   66.57    5.32
  -5   1  -5   65.91    6.34
   7  -1   5   -0.18    0.91
  -7  -1  -5    3.51    4.01
   7  -1   5    0.94    0.31
  -7  -1  -5    2.68    1.59
  -7  -1  -5    4.47    3.88
   7  -1   5    0.19    0.46
  -7   1  -5    2.71    1.56
   7   1   5    0.92    0.86
  -7   1  -5    2.15    3.83
   7   1   5    2.32    0.64
  -7   1  -5    3.69    2.23
   7   1   5    2.10    0.44
  -7   1  -5   -7.77    3.32
  -7   1  -5    0.58    1.72
   9  -1   5   37.89    3.08
  -9  -1  -5   32.02    4.45
   9  -1   5   37.76    2.80
   9  -1   5   35.82    3.90
  -9  -1  -5   40.71    7.62
  -9  -1  -5   45.81    7.39
  -9   1  -5   43.43    5.37
  -9   1  -5   40.51    7.90
   9   1   5   35.75    3.57
   9   1   5   36.39    3.12
  -9   1  -5   40.13    5.29
   9   1   5   38.83    2.92
  -9   1  -5   40.15    4.14
  -9   1  -5   29.00    7.07
 -11  -1  -5   37.81    4.60
  11  -1   5   32.49    3.00
  11  -1   5   31.90    4.11
 -11  -1  -5   45.47    8.37
  11  -1   5   32.95    2.84
 -11  -1  -5   35.03    7.42
  11   1   5   36.02    3.07
 -11   1  -5   35.01    4.85
 -11   1  -5   46.97    4.40
 -11   1  -5   46.09    5.81
 -11   1  -5   17.83    6.68
  11   1   5   31.17    3.85
  11   1   5   35.59    2.79
 -11   1  -5   34.75    8.22
  13  -1   5   50.92    3.80
 -13  -1  -5   50.89   11.01
 -13  -1  -5   48.35   10.29
 -13  -1  -5   50.76    6.82
  13  -1   5   52.54    4.18
 -13   1  -5   55.12   10.80
  13   1   5   50.71    5.33
 -13   1  -5   50.87    5.70
 -13   1  -5   38.24    6.79
 -13   1  -5   52.23    7.42
  13   1   5   51.46    4.34
  13   1   5   47.87    3.88
  15  -1   5    0.85    0.80
 -15  -1  -5   -0.94    3.32
 -15  -1  -5   -8.66    8.34
  15  -1   5    1.09    1.25
 -15  -1  -5   -3.12    9.29
 -15   1  -5   -0.32    9.55
  15   1   5    2.60    0.92
 -15   1  -5    6.03    4.12
  15   1   5    1.56    1.39
 -15   1  -5    6.36    5.02
 -15   1  -5   -0.35   10.92
 -15   1  -5    2.93    3.22
  15   1   5   -1.37    2.54
  17  -1   5    6.05    3.68
 -17  -1  -5   17.87    5.75
  17  -1   5    6.30    1.83
 -17  -1  -5   19.41   12.32
 -17  -1  -5    1.67   11.25
  17   1   5    4.74    1.31
 -17   1  -5   -4.90   11.89
 -17   1  -5    6.98    5.13
 -17   1  -5    8.35   13.57
  17   1   5    8.85    3.66
  17   1   5    6.36    1.95
 -19  -1  -5    7.31    6.05
 -19  -1  -5   13.46   16.16
  19  -1   5   -3.42    4.66
  19  -1   5    1.40    2.11
 -19  -1  -5    8.73   17.12
 -19   1  -5   -6.53    6.12
  19   1   5    3.05    4.82
  19   1   5    2.53    2.07
 -19   1  -5    4.35   17.58
 -19   1  -5   -0.66   17.49
 -20  -2   5   -3.93    6.87
  20  -2  -5    0.03    2.85
  20   2  -5    1.25    2.53
 -20   2   5    7.59    7.93
 -18  -2   5   -3.89    4.52
  18  -2  -5    7.40    2.63
 -18   2   5    2.91    5.96
  18   2  -5    5.39    2.48
 -18   2   5    4.09    2.02
 -16  -2   5   88.69    9.81
  16  -2  -5   73.61    7.17
 -16  -2   5   75.98    8.77
  16  -2  -5   82.91    7.93
 -16  -2   5   66.50    9.44
  16   2  -5   77.77    6.89
 -16   2   5   73.93    6.19
 -14  -2   5   51.56    3.89
 -14  -2   5   45.95    8.46
  14  -2  -5   42.33    5.25
  14  -2  -5   53.73    5.42
  14  -2  -5   61.21    6.28
 -14   2   5   48.95    4.06
  14   2  -5   44.02    4.77
 -14   2   5   46.07    8.20
  14   2  -5   47.92    5.64
 -12  -2   5    2.28    0.63
  12  -2  -5   -0.54    1.90
 -12  -2   5    3.35    2.16
  12  -2  -5    3.85    2.55
 -12   2   5    0.74    0.72
 -12   2   5    3.13    2.04
 -12   2   5    5.07    2.10
  12   2  -5    2.15    1.66
 -12   2   5    7.17    5.18
 -12   2   5    3.50    2.27
  12   2  -5    1.49    1.28
  10  -2  -5   14.60    3.44
 -10  -2   5   11.55    2.20
  10  -2  -5    7.25    2.57
 -10  -2   5   10.31    1.09
  10  -2  -5   15.33    2.29
 -10   2   5   12.27    2.30
 -10   2   5   15.10    5.45
  10   2  -5   10.63    2.45
  10   2  -5    8.15    1.64
 -10   2   5    8.27    1.19
  10   2  -5   13.00    2.97
   8  -2  -5  245.40   18.57
   8  -2  -5  261.40   19.33
   8  -2  -5  230.58   20.06
  -8  -2   5  247.26   18.30
  -8  -2   5  250.90   18.58
  -8  -2   5  240.00   17.69
   8   2  -5  262.00   18.94
  -8   2   5  249.58   17.85
  -8   2   5  235.92   19.85
   8   2  -5  295.62   18.33
   8   2  -5  262.51   19.57
  -8   2   5  223.85   18.06
  -6  -2   5   79.28    6.83
   6  -2  -5   81.09    7.00
  -6  -2   5   88.78    6.59
   6  -2  -5   67.31    8.52
   6  -2  -5   83.01    7.96
  -6  -2   5   83.87    6.16
  -6   2   5   88.19    6.22
  -6   2   5   83.16    6.26
   6   2  -5   93.82    7.49
   6   2  -5   82.07    7.82
  -6   2   5   98.13    9.86
   4  -2  -5   -0.86    2.78
  -4  -2   5    2.88    1.20
  -4  -2   5    0.31    0.60
   4  -2  -5   -0.84    1.15
   4  -2  -5   -6.13    2.76
   4  -2  -5   -1.02    1.86
   4  -2  -5    2.81    1.35
   4  -2  -5    0.58    2.64
   4   2  -5    1.74    1.91
  -4   2   5    0.41    0.43
   4   2  -5   -0.34    0.68
   4   2  -5    0.13    1.35
  -4   2   5   -0.74    4.08
   4   2  -5    1.76    1.79
  -4   2   5    0.23    0.44
  -4   2   5    1.05    0.84
  -4   2   5   -0.27    0.48
   2  -2  -5   83.71    8.38
  -2  -2   5   75.64    6.19
   2  -2  -5   87.52    8.31
   2  -2  -5   66.47    6.87
   2  -2  -5   62.39    7.87
  -2  -2   5   81.00    5.30
   2  -2  -5   78.17    6.03
  -2   2   5   66.48    5.58
  -2   2   5   73.11    5.73
   2   2  -5   76.14    5.77
   2   2  -5   79.58    5.33
  -2   2   5   76.47    5.92
  -2   2   5   67.37    5.60
   2   2  -5   76.15    6.37
   2   2  -5   67.35    7.14
  -2   2   5   78.85    5.52
   2   2  -5   79.02    8.25
  -2   2   5   74.82    9.03
   2   2  -5   75.98    6.62
   0  -2  -5  327.44   24.77
   0  -2  -5  319.18   22.86
   0  -2  -5  333.05   24.92
   0  -2   5  339.16   22.35
   0  -2   5  306.83   23.07
   0  -2  -5  330.86   23.62
   0  -2  -5  321.56   24.75
   0   2  -5  350.78   25.59
   0   2  -5  322.70   23.55
   0   2  -5  314.54   23.06
   0   2  -5  270.91   24.02
   0   2   5  309.14   22.56
   0   2  -5  345.20   25.63
   0   2   5  305.60   22.81
   0   2   5  305.44   22.51
  -2  -2  -5  163.02   10.66
  -2  -2  -5  159.92   11.11
  -2  -2  -5  164.65   12.51
  -2  -2  -5  146.85   10.32
   2  -2   5  137.94   10.57
  -2  -2  -5  131.36   12.27
   2  -2   5  123.42   12.20
   2   2   5  146.77   10.06
  -2   2  -5  153.12   13.85
  -2   2  -5  132.20   10.48
  -2   2  -5  130.26   13.40
  -2   2  -5  130.29    9.91
   2   2   5  140.98   10.06
  -2   2  -5  115.23   10.92
   2   2   5  145.99   10.39
  -2   2  -5  117.80   11.58
   4  -2   5    4.06    1.24
  -4  -2  -5    7.51    3.26
  -4  -2  -5    6.84    3.43
  -4  -2  -5    4.89    1.54
  -4   2  -5   10.35    4.73
   4   2   5    4.41    1.09
  -4   2  -5    4.99    2.24
   4   2   5    3.47    0.70
  -4   2  -5    2.44    4.44
  -4   2  -5    5.41    2.02
   4   2   5    4.89    0.68
   6  -2   5   56.68    5.08
  -6  -2  -5   64.19    7.64
  -6  -2  -5   59.50    7.46
  -6  -2  -5   65.54    5.58
   6  -2   5   60.13    4.45
  -6   2  -5   66.45    9.74
  -6   2  -5   50.31    6.18
   6   2   5   59.57    4.84
  -6   2  -5   65.07    5.72
  -6   2  -5   60.20    9.64
  -6   2  -5   61.15    6.18
   6   2   5   59.96    4.45
  -8  -2  -5   43.78    7.01
  -8  -2  -5   36.49    4.11
  -8  -2  -5   44.47    7.42
   8  -2   5   38.41    3.86
   8  -2   5   35.77    2.98
  -8   2  -5   38.22    4.35
  -8   2  -5   37.06    5.00
   8   2   5   42.26    3.20
   8   2   5   35.35    2.94
   8   2   5   41.84    3.50
  -8   2  -5   33.76    4.69
  -8   2  -5   30.35    6.86
  -8   2  -5   43.83    8.20
 -10  -2  -5  148.90   13.15
 -10  -2  -5  147.39   15.55
  10  -2   5  166.76   12.72
 -10  -2  -5  135.85   15.36
  10  -2   5  173.05   11.99
 -10   2  -5  151.33   16.35
 -10   2  -5  178.29   12.73
  10   2   5  170.49   12.13
  10   2   5  179.76   12.43
  10   2   5  167.48   11.88
 -10   2  -5  169.07   17.12
 -10   2  -5  160.71   13.72
  12  -2   5    2.87    0.91
 -12  -2  -5    4.31    5.29
  12  -2   5    5.78    0.70
 -12  -2  -5    6.41    3.44
 -12  -2  -5   -2.27    6.64
  12   2   5    5.01    1.22
 -12   2  -5    8.95    3.55
 -12   2  -5    6.90    7.06
 -12   2  -5   10.26    2.73
 -12   2  -5   11.02    3.93
 -12   2  -5    3.51    6.31
  12   2   5    5.67    1.95
  12   2   5    4.78    0.92
  14  -2   5   46.57    4.71
 -14  -2  -5   52.59    7.11
 -14  -2  -5   52.31   12.05
  14  -2   5   47.37    3.72
 -14  -2  -5   47.16   11.02
 -14   2  -5   49.30    7.20
 -14   2  -5   52.34   11.65
  14   2   5   50.53    3.95
  14   2   5   51.41    5.51
 -14   2  -5   49.57   12.62
  14   2   5   49.68    4.48
 -14   2  -5   53.30    7.48
 -16  -2  -5   26.13   11.74
 -16  -2  -5   28.72    6.29
  16  -2   5   40.27    5.49
  16  -2   5   36.33    3.72
 -16  -2  -5   27.88   12.08
  16   2   5   39.77    4.92
 -16   2  -5   47.28   15.74
 -16   2  -5   31.25    6.73
  16   2   5   34.31    3.22
 -16   2  -5   49.25   14.03
  16   2   5   35.25    3.83
 -18  -2  -5   39.19    7.88
 -18  -2  -5   28.22   14.81
 -18  -2  -5   41.56   15.91
  18  -2   5   36.72    4.29
 -18   2  -5   29.69   17.72
  18   2   5   38.45    3.84
  18   2   5   38.26    4.44
 -18   2  -5   36.21    8.10
 -18   2  -5   46.03   16.43
  18   2   5   39.55    6.07
 -19  -3   5   98.92   13.59
 -19  -3   5   84.65   10.81
  19  -3  -5   79.16    8.06
 -19   3   5   83.11   11.68
  19   3  -5   83.80    7.72
 -17  -3   5   -1.44    4.26
 -17  -3   5    3.31    6.41
 -17  -3   5    5.41    7.58
  17  -3  -5    1.47    2.43
 -17   3   5    6.58    1.85
  17   3  -5    7.61    2.24
 -17   3   5    2.16    5.53
  15  -3  -5   26.24    3.85
 -15  -3   5   23.44    5.16
  15  -3  -5   18.40    3.45
 -15   3   5   22.81    4.74
 -15   3   5   24.09    2.75
  15   3  -5   27.23    3.53
 -13  -3   5  127.85   11.07
  13  -3  -5  138.61   11.01
  13  -3  -5  125.81   10.75
  13  -3  -5  147.28   11.71
  13   3  -5  132.74   10.39
  13   3  -5  117.61   10.98
 -13   3   5  137.84    9.82
 -11  -3   5   65.26    5.93
  11  -3  -5   59.56    7.12
  11  -3  -5   64.13    5.76
 -11  -3   5   64.16    4.63
  11  -3  -5   64.80    6.50
  11   3  -5   63.81    5.36
 -11   3   5   62.47    4.89
  11   3  -5   63.00    5.95
  -9  -3   5   35.90    2.55
   9  -3  -5   27.42    5.34
   9  -3  -5   37.06    3.88
   9  -3  -5   33.51    4.73
  -9  -3   5   32.29    3.94
  -9  -3   5   33.03    3.59
  -9   3   5   33.05    3.58
  -9   3   5   37.95    3.46
   9   3  -5   38.99    4.55
   9   3  -5   32.62    3.17
  -9   3   5   30.43    2.79
   9   3  -5   28.97    3.77
   7  -3  -5    0.50    2.65
  -7  -3   5    1.79    1.11
   7  -3  -5   -1.27    1.19
  -7  -3   5    0.66    0.39
   7  -3  -5   -0.26    2.17
  -7  -3   5    1.20    1.52
  -7   3   5   -1.15    1.10
   7   3  -5    1.13    1.61
  -7   3   5    0.68    0.57
  -7   3   5    0.70    0.57
  -7   3   5   -2.53    2.73
   7   3  -5    0.05    0.87
   7   3  -5    1.09    1.43
   5  -3  -5  316.79   23.56
   5  -3  -5  342.02   24.45
  -5  -3   5  318.29   23.44
   5  -3  -5  343.55   24.52
   5  -3  -5  282.21   25.42
   5  -3  -5  323.16   24.50
  -5  -3   5  332.00   22.74
  -5   3   5  320.31   22.82
  -5   3   5  343.30   23.97
   5   3  -5  289.44   24.08
  -5   3   5  318.59   22.63
   5   3  -5  305.61   23.63
   5   3  -5  344.54   22.96
  -5   3   5  313.15   22.75
   3  -3  -5  217.15   20.53
   3  -3  -5  256.61   18.57
   3  -3  -5  265.07   19.74
   3  -3  -5  251.96   20.23
  -3  -3   5  268.02   18.91
   3   3  -5  268.12   19.72
   3   3  -5  225.68   18.95
  -3   3   5  260.47   18.51
  -3   3   5  250.04   18.17
  -3   3   5  235.25   18.28
   3   3  -5  268.57   17.93
  -3   3   5  296.94   19.92
   3   3  -5  266.70   18.99
   1  -3  -5  175.57   12.92
  -1  -3   5  186.59   13.33
   1  -3  -5  157.25   14.79
   1  -3  -5  195.97   14.96
   1  -3  -5  184.02   14.82
  -1   3   5  170.94   12.62
  -1   3   5  164.31   12.80
   1   3  -5  178.29   13.53
  -1   3   5  167.61   12.85
   1   3  -5  186.50   13.35
   1   3  -5  184.87   15.19
  -1   3   5  180.92   12.72
   1   3  -5  174.40   14.09
  -1  -3  -5   92.27    9.18
  -1  -3  -5  102.15    9.46
  -1  -3  -5   81.29    7.26
  -1  -3  -5  114.04    8.18
  -1  -3  -5   96.79    7.30
  -1  -3  -5  117.31    9.73
   1  -3   5   98.78    7.62
   1   3   5   85.16    7.04
  -1   3  -5   93.35   10.11
  -1   3  -5   98.75    7.70
   1   3   5   96.16    7.26
  -1   3  -5   91.73    8.45
   1   3   5   98.03    7.05
  -1   3  -5  104.51   10.53
  -1   3  -5  106.64    8.05
   1   3   5   89.96    7.30
   3  -3   5  358.42   26.78
  -3  -3  -5  336.24   28.29
  -3  -3  -5  415.80   28.82
   3  -3   5  410.74   28.25
  -3  -3  -5  376.50   26.33
  -3  -3  -5  406.42   26.79
  -3   3  -5  355.35   27.50
   3   3   5  361.08   26.30
  -3   3  -5  343.51   29.45
  -3   3  -5  363.37   29.53
  -3   3  -5  412.91   26.17
   3   3   5  379.57   26.47
   3   3   5  309.35   26.22
  -5  -3  -5  170.75   14.13
  -5  -3  -5  147.82   13.71
  -5  -3  -5  163.26   12.03
   5   3   5  158.76   11.33
   5   3   5  161.80   11.25
   5   3   5  161.54   11.49
  -5   3  -5  151.39   15.14
  -5   3  -5  140.96   15.03
  -5   3  -5  153.67   12.05
  -5   3  -5  144.91   12.42
  -7  -3  -5   32.81    6.19
  -7  -3  -5   36.52    6.52
  -7  -3  -5   39.20    4.13
   7  -3   5   32.75    3.72
   7  -3   5   36.35    2.86
   7   3   5   36.68    2.91
  -7   3  -5   45.01    8.14
  -7   3  -5   47.07    5.24
  -7   3  -5   28.87    4.55
   7   3   5   38.40    3.30
  -7   3  -5   29.03    6.85
   7   3   5   41.01    3.08
   9  -3   5    8.19    1.92
  -9  -3  -5    2.17    3.78
   9  -3   5    7.90    1.04
  -9  -3  -5    9.40    2.22
  -9  -3  -5    8.02    4.73
  -9   3  -5    8.05    5.85
  -9   3  -5    8.41    2.77
  -9   3  -5    2.75    2.62
   9   3   5    7.13    1.40
   9   3   5    7.48    1.19
  -9   3  -5    3.64    5.21
  -9   3  -5    8.23    2.46
   9   3   5    8.78    1.08
 -11  -3  -5   64.47   11.14
  11  -3   5   75.07    6.61
  11  -3   5   76.51    5.55
 -11  -3  -5   61.52    9.52
 -11  -3  -5   75.05    7.03
 -11   3  -5   73.04   11.87
  11   3   5   70.78    5.47
  11   3   5   68.58    5.70
 -11   3  -5   77.48    6.23
 -11   3  -5   76.86   12.24
 -11   3  -5   67.82   11.49
  13  -3   5  128.10   10.28
  13  -3   5  126.64    9.07
 -13  -3  -5  115.51   11.24
 -13  -3  -5  113.99   16.09
 -13  -3  -5  125.02   15.88
 -13   3  -5  106.14   16.06
 -13   3  -5  125.06   11.82
  13   3   5  119.77    9.30
  13   3   5  117.77    8.94
  13   3   5  129.36    9.81
 -13   3  -5  110.63   15.96
  15  -3   5   46.07    4.13
 -15  -3  -5   45.64   11.41
  15  -3   5   42.18    5.61
 -15  -3  -5   37.72   11.22
 -15  -3  -5   37.85    6.54
  15   3   5   39.90    4.25
  15   3   5   50.23    5.70
  15   3   5   44.58    3.74
 -15   3  -5   42.85   13.71
 -15   3  -5   48.69    8.02
 -15   3  -5   70.64   13.98
 -17  -3  -5    0.10    4.69
 -17  -3  -5    0.13   10.79
 -17  -3  -5    3.11   10.57
  17  -3   5    4.93    3.84
  17  -3   5    0.63    1.67
 -17   3  -5   13.70    6.22
 -17   3  -5   -3.54   15.03
  17   3   5    1.24    1.69
 -17   3  -5    3.30   13.54
  17   3   5   -0.24    1.35
  17   3   5   -0.63    3.60
  19  -3   5   32.03    6.69
  19  -3   5   32.77    4.31
 -19  -3  -5   39.20   16.25
 -19  -3  -5   26.19   16.42
 -19  -3  -5   37.09    7.89
 -19   3  -5   33.17    9.19
 -19   3  -5   42.73   19.95
  19   3   5   32.18    4.02
  19   3   5   28.37    3.51
 -18  -4   5   74.40   10.39
 -18  -4   5   91.10   13.13
  18  -4  -5   81.59    7.75
 -18  -4   5   72.19   11.44
 -18   4   5   74.72    6.75
  18   4  -5   75.38    7.03
  18   4  -5   87.38    7.36
 -18   4   5   64.51   10.20
 -16  -4   5  189.65   15.04
  16  -4  -5  177.49   13.38
  16  -4  -5  163.40   13.48
 -16   4   5  165.32   12.59
 -16   4   5  151.40   15.09
  16   4  -5  165.77   13.06
  14  -4  -5   60.38    6.19
 -14  -4   5   54.10    7.03
  14  -4  -5   68.14    6.95
  14  -4  -5   60.63    6.30
  14   4  -5   60.98    5.61
 -14   4   5   58.76    7.55
 -14   4   5   61.07    5.08
  12  -4  -5    4.48    2.47
  12  -4  -5   -3.36    2.03
  12  -4  -5    3.80    2.87
 -12  -4   5    0.15    1.89
 -12   4   5    2.23    0.82
 -12   4   5    9.54    3.09
  10  -4  -5  122.74   10.23
  10  -4  -5  125.39   11.33
 -10  -4   5  132.54    8.18
 -10  -4   5  106.95    9.30
 -10  -4   5  109.08    9.45
  10  -4  -5  117.00    9.42
  10   4  -5  111.99    9.46
  10   4  -5   99.33    8.74
 -10   4   5  107.03    9.41
 -10   4   5  116.56    8.55
  -8  -4   5  145.72   10.45
   8  -4  -5  129.26   13.55
  -8  -4   5  140.84   11.29
   8  -4  -5  156.38   12.72
   8  -4  -5  149.52   11.68
  -8  -4   5  137.16   11.54
  -8   4   5  147.36   10.78
   8   4  -5  162.67   11.01
   8   4  -5  140.75   11.63
  -8   4   5  145.53   10.78
  -8   4   5  153.84   11.28
   8   4  -5  164.16   12.42
  -6  -4   5  153.31   12.63
  -6  -4   5  176.37   12.12
   6  -4  -5  187.63   13.48
  -6  -4   5  160.09   13.12
   6  -4  -5  175.75   13.35
   6  -4  -5  174.22   14.22
   6  -4  -5  136.23   15.05
   6  -4  -5  173.93   13.24
   6   4  -5  169.25   13.15
  -6   4   5  173.43   12.30
  -6   4   5  169.41   12.31
   6   4  -5  187.34   13.83
   4  -4  -5   84.04    8.78
  -4  -4   5  101.72    7.97
   4  -4  -5   78.78    9.92
   4  -4  -5  101.60    7.73
   4  -4  -5   90.73    9.35
  -4   4   5  102.33    8.42
  -4   4   5   99.62    7.19
   4   4  -5   93.73    7.19
   4   4  -5   85.22    7.91
  -4   4   5   97.09    7.25
   4   4  -5  105.50    6.88
   4   4  -5  111.98    8.72
  -2  -4   5  167.88   12.28
   2  -4  -5  159.39   12.81
   2  -4  -5  156.93   11.83
   2  -4  -5  148.41   13.90
   2  -4  -5  170.07   13.56
  -2   4   5  149.39   11.65
  -2   4   5  163.32   11.77
   2   4  -5  170.55   12.89
  -2   4   5  161.45   11.56
   2   4  -5  175.33   11.48
  -2   4   5  136.37   11.61
   2   4  -5  168.23   12.35
   0  -4  -5  638.65   45.65
   0  -4  -5  699.35   45.87
   0  -4  -5  669.16   44.81
   0  -4   5  603.87   44.35
   0  -4  -5  606.84   43.91
   0   4   5  587.04   43.76
   0   4  -5  612.90   44.83
   0   4   5  596.78   43.80
   0   4  -5  708.47   46.71
   0   4   5  606.55   43.72
   0   4   5  598.14   43.84
   0   4   5  573.02   43.91
  -2  -4  -5  212.95   17.26
   2  -4   5  203.06   15.67
  -2  -4  -5  247.44   17.60
  -2  -4  -5  214.63   15.19
  -2  -4  -5  235.99   15.49
  -2   4  -5  191.08   16.00
  -2   4  -5  243.64   18.52
   2   4   5  220.04   15.42
   2   4   5  200.79   15.14
  -2   4  -5  195.55   18.00
   2   4   5  204.79   15.17
   2   4   5  205.84   15.17
  -2   4  -5  203.17   15.68
  -4  -4  -5    2.62    2.95
  -4  -4  -5    7.33    1.61
  -4  -4  -5    4.66    3.28
   4  -4   5    5.07    1.59
   4  -4   5    9.05    3.30
  -4   4  -5    7.18    1.87
  -4   4  -5   11.96    4.38
  -4   4  -5    6.90    0.98
  -4   4  -5    7.02    1.93
   4   4   5    7.99    1.17
  -4   4  -5   10.14    4.83
   4   4   5    5.72    1.01
   4   4   5    9.29    1.06
  -6  -4  -5  213.85   16.85
   6  -4   5  223.56   16.77
  -6  -4  -5  240.07   19.16
   6  -4   5  218.85   15.97
  -6  -4  -5  214.16   18.79
   6   4   5  224.12   16.13
  -6   4  -5  212.79   20.04
   6   4   5  223.53   16.24
   6   4   5  237.64   16.27
  -6   4  -5  237.46   16.70
  -6   4  -5  246.80   20.44
  -8  -4  -5  156.57   14.64
  -8  -4  -5  156.35   12.37
   8  -4   5  161.98   12.15
  -8  -4  -5  147.97   14.49
   8  -4   5  164.32   11.26
   8   4   5  164.55   11.52
  -8   4  -5  120.64   15.87
   8   4   5  152.38   11.35
  -8   4  -5  158.60   15.96
   8   4   5  162.23   11.55
 -10  -4  -5   71.78    6.78
  10  -4   5   62.52    6.21
  10  -4   5   69.54    5.27
 -10  -4  -5   64.20   10.01
 -10  -4  -5   80.32    9.34
 -10   4  -5   63.66   10.64
  10   4   5   70.19    5.34
  10   4   5   73.53    5.72
 -10   4  -5   69.87    8.02
 -10   4  -5   84.42   12.57
  12  -4   5    3.28    2.23
 -12  -4  -5    7.62    3.36
 -12  -4  -5    3.20    6.82
 -12  -4  -5    4.44    6.15
  12  -4   5    5.25    1.05
 -12   4  -5    5.11    4.04
  12   4   5    4.13    1.29
 -12   4  -5   14.76    7.35
 -12   4  -5   13.64    7.49
  12   4   5    7.99    2.00
  12   4   5    6.79    1.12
  14  -4   5   10.73    1.54
  14  -4   5   14.18    3.17
 -14  -4  -5    6.32    7.24
 -14  -4  -5   10.76    4.03
 -14  -4  -5    1.44    7.46
 -14   4  -5    8.60    9.88
  14   4   5    9.36    2.68
  14   4   5   10.23    1.53
 -14   4  -5   10.42    9.48
 -14   4  -5   12.14    5.00
  14   4   5    8.33    1.82
 -16  -4  -5   92.86   11.04
  16  -4   5   96.26   10.08
 -16  -4  -5  101.22   16.48
  16  -4   5  101.46    8.04
 -16  -4  -5   91.82   16.34
  16   4   5  106.12    7.92
  16   4   5  118.91    9.53
  16   4   5   99.47    8.30
 -16   4  -5   85.45   12.02
 -16   4  -5  113.02   18.40
 -16   4  -5  116.68   18.40
  18  -4   5   71.79    6.48
 -18  -4  -5   79.81   10.16
 -18  -4  -5   61.34   15.98
 -18  -4  -5   81.04   17.35
  18  -4   5   73.66    9.78
  18   4   5   73.58    6.68
 -18   4  -5   67.59   18.72
  18   4   5   71.54    6.31
 -18   4  -5   72.21   11.28
 -19  -5   5  110.03   15.66
 -19  -5   5  118.13   15.42
 -19  -5   5  101.42   12.69
  19  -5  -5  118.91    9.90
  19   5  -5  122.55    9.30
 -19   5   5   95.70    8.98
  19   5  -5  101.60    9.42
 -17  -5   5   14.26    5.29
 -17  -5   5   -2.20    5.65
  17  -5  -5    0.64    2.58
 -17  -5   5    7.22    7.47
  17  -5  -5    0.93    2.58
  17   5  -5    0.09    1.94
 -17   5   5   -0.35    6.35
  17   5  -5    2.01    2.16
 -17   5   5    0.55    1.74
  15  -5  -5   20.22    4.04
  15  -5  -5   18.61    3.29
  15  -5  -5   17.52    3.39
 -15  -5   5   20.56    4.63
 -15   5   5   17.68    4.87
  15   5  -5   14.55    2.68
 -15   5   5   17.56    2.39
  13  -5  -5  159.89   12.83
  13  -5  -5  132.38   11.78
 -13  -5   5  130.16   12.32
  13  -5  -5  155.03   12.06
 -13   5   5  140.70   12.55
 -13   5   5  151.37   10.91
  13   5  -5  147.12   11.23
 -11  -5   5  269.31   20.21
  11  -5  -5  287.52   21.63
 -11  -5   5  259.79   20.01
  11  -5  -5  270.50   20.56
 -11   5   5  249.09   20.12
 -11   5   5  273.47   19.22
  11   5  -5  263.38   19.42
   9  -5  -5   25.23    5.53
   9  -5  -5   15.39    3.95
  -9  -5   5   23.63    3.04
   9  -5  -5   22.34    3.33
  -9  -5   5   21.78    3.27
  -9   5   5   24.53    2.16
   9   5  -5   20.09    2.38
   9   5  -5   21.50    3.18
  -9   5   5   22.16    2.17
  -7  -5   5   65.17    5.79
   7  -5  -5   70.61    6.29
   7  -5  -5   74.51    7.82
   7  -5  -5   48.52    8.55
  -7  -5   5   73.54    4.90
  -7  -5   5   65.25    6.32
   7   5  -5   70.19    5.36
  -7   5   5   61.38    5.25
  -7   5   5   65.14    5.29
   7   5  -5   72.44    6.23
   7   5  -5   82.75    6.98
  -5  -5   5  179.70   15.57
   5  -5  -5  179.55   15.93
   5  -5  -5  187.72   15.94
   5  -5  -5  167.90   17.03
   5  -5  -5  206.39   16.05
   5   5  -5  210.73   13.90
   5   5  -5  197.97   13.94
   5   5  -5  226.45   15.67
  -5   5   5  190.66   14.18
   5   5  -5  215.71   15.04
  -5   5   5  168.20   14.16
   5   5  -5  218.04   14.18
   3  -5  -5  540.34   34.64
   3  -5  -5  431.05   34.19
   3  -5  -5  396.16   35.09
   3  -5  -5  474.76   34.07
   3  -5  -5  431.86   32.95
  -3  -5   5  438.74   33.37
   3   5  -5  509.84   33.94
  -3   5   5  515.51   32.80
   3   5  -5  463.63   32.54
  -3   5   5  417.62   32.66
  -3   5   5  440.27   32.81
   3   5  -5  490.32   33.42
  -1  -5   5   40.02    4.16
   1  -5  -5   48.04    3.42
   1  -5  -5   49.75    5.88
   1  -5  -5   41.64    3.79
   1  -5  -5   46.80    4.83
   1  -5  -5   41.74    5.58
   1  -5  -5   44.62    6.29
   1   5  -5   47.26    4.62
  -1   5   5   44.33    3.52
  -1   5   5   44.16    3.60
   1   5  -5   39.62    3.33
   1   5  -5   43.30    4.20
  -1   5   5   43.67    3.65
   1   5  -5   44.78    3.21
  -1  -5  -5   48.58    3.81
   1  -5   5   40.98    4.38
  -1  -5  -5   48.91    3.84
  -1  -5  -5   38.78    5.88
  -1  -5  -5   42.21    5.80
   1  -5   5   41.85    3.37
   1   5   5   44.07    3.71
  -1   5  -5   50.41    4.61
  -1   5  -5   49.37    7.06
  -1   5  -5   53.36    3.47
   1   5   5   41.25    3.87
   1   5   5   48.54    3.74
  -1   5  -5   53.88    4.38
   3  -5   5  156.30   12.24
  -3  -5  -5  146.14   13.50
  -3  -5  -5  157.81   13.74
   3  -5   5  134.54   13.11
  -3  -5  -5  179.57   11.96
   3   5   5  157.22   11.77
   3   5   5  165.67   11.37
  -3   5  -5  146.75   11.81
  -3   5  -5  160.41   11.25
  -3   5  -5  166.91   12.13
   3   5   5  175.84   11.61
   3   5   5  163.37   11.60
  -3   5  -5  143.42   14.61
  -5  -5  -5  271.98   19.06
  -5  -5  -5  242.93   20.81
  -5  -5  -5  252.38   20.99
   5  -5   5  262.54   19.18
   5   5   5  228.12   18.69
  -5   5  -5  302.68   18.41
  -5   5  -5  220.74   21.68
   5   5   5  264.44   18.57
  -5   5  -5  283.02   22.44
   5   5   5  258.53   18.26
   5   5   5  276.01   18.50
  -5   5  -5  226.62   18.62
   7  -5   5  167.89   13.15
   7  -5   5  159.95   12.17
  -7  -5  -5  165.83   15.24
  -7  -5  -5  170.93   15.58
  -7  -5  -5  181.99   13.32
   7   5   5  181.58   12.42
   7   5   5  169.17   12.52
  -7   5  -5  174.24   16.94
  -7   5  -5  172.35   16.91
   7   5   5  175.04   12.36
   9  -5   5   26.69    2.32
  -9  -5  -5   30.76    3.89
   9  -5   5   32.66    3.83
  -9  -5  -5   24.58    5.84
  -9  -5  -5   27.23    6.12
  -9   5  -5   20.11    7.31
   9   5   5   37.03    3.30
   9   5   5   25.23    2.63
   9   5   5   27.11    2.51
  -9   5  -5   43.53    8.81
   9   5   5   29.35    2.83
 -11  -5  -5  170.33   13.47
  11  -5   5  154.46   11.59
  11  -5   5  151.65   12.65
 -11  -5  -5  157.19   16.47
 -11  -5  -5  156.16   16.94
 -11   5  -5  165.84   17.70
  11   5   5  175.54   11.97
  11   5   5  145.40   11.87
  11   5   5  171.22   11.74
 -11   5  -5  153.35   17.29
  13  -5   5  119.00    9.83
 -13  -5  -5  115.02   14.96
 -13  -5  -5  102.51   10.55
  13  -5   5  103.87    8.09
 -13  -5  -5   97.50   14.93
 -13   5  -5   96.54   14.64
  13   5   5  104.08    8.42
  13   5   5  123.81    8.78
  15  -5   5   51.21    4.34
  15  -5   5   52.16    6.86
 -15  -5  -5   36.30    6.80
 -15  -5  -5   40.85   11.05
 -15  -5  -5   37.25   11.21
  15   5   5   51.39    5.91
  15   5   5   50.10    4.54
  15   5   5   49.88    4.33
 -15   5  -5   52.54   12.77
 -15   5  -5   45.26    9.15
  15   5   5   43.28    4.65
  17  -5   5   11.08    2.13
 -17  -5  -5    6.19    5.28
 -17  -5  -5    8.42   11.74
  17  -5   5   12.66    4.37
 -17  -5  -5   15.49   11.27
  17   5   5    7.85    2.15
 -17   5  -5   19.74   14.86
  17   5   5    7.16    2.09
 -18  -6   5   38.57   10.16
 -18  -6   5   23.57    9.40
 -18  -6   5   33.80    7.55
  18  -6  -5   26.82    4.55
 -18   6   5   40.16    4.26
  18   6  -5   40.09    4.74
  18   6  -5   27.47    3.97
 -16  -6   5  113.84   11.83
  16  -6  -5  103.77   10.10
  16  -6  -5  115.83    9.70
  16   6  -5  114.25    9.40
 -16   6   5  124.88    9.17
  16   6  -5  119.26    9.50
  14  -6  -5   93.23    9.05
 -14  -6   5  103.83   10.05
  14  -6  -5  120.47    9.95
  14  -6  -5  101.90    9.08
  14   6  -5   97.12    8.33
 -14   6   5   97.62    7.95
  14   6  -5  106.46    8.29
 -12  -6   5    2.04    2.56
  12  -6  -5   -0.02    2.69
  12  -6  -5   -0.55    2.14
  12  -6  -5    3.09    3.35
  12   6  -5    3.20    1.59
 -12   6   5    1.57    1.19
  12   6  -5    2.54    1.27
  10  -6  -5  206.09   16.70
  10  -6  -5  217.25   17.57
 -10  -6   5  221.37   16.82
  10  -6  -5  210.06   18.71
 -10  -6   5  214.22   16.66
  10   6  -5  238.17   16.02
  -8  -6   5  296.90   22.84
   8  -6  -5  325.56   23.22
  -8  -6   5  316.96   23.00
   8  -6  -5  305.74   24.20
   8  -6  -5  289.76   25.58
   8   6  -5  326.20   22.25
  -8   6   5  321.13   22.25
   8   6  -5  312.11   23.04
  -8   6   5  296.02   22.18
   6  -6  -5   77.72    8.07
   6  -6  -5   70.44    6.55
  -6  -6   5   74.95    6.08
  -6  -6   5   73.79    6.62
  -6  -6   5   72.83    5.04
   6  -6  -5   63.43    7.57
  -6  -6   5   71.05    5.10
   6  -6  -5   63.72    7.63
   6  -6  -5   55.54    9.13
   6   6  -5   75.83    5.39
   6   6  -5   66.26    6.17
   6   6  -5   74.47    5.13
  -6   6   5   64.98    5.43
  -6   6   5   67.24    5.43
   4  -6  -5    4.59    2.90
   4  -6  -5   -1.38    2.18
   4  -6  -5    1.34    3.11
   4  -6  -5    2.34    3.16
  -4  -6   5   -1.81    1.56
  -4   6   5    0.50    0.91
   4   6  -5    0.51    0.58
   4   6  -5   -0.50    0.48
   4   6  -5    1.32    1.49
  -4   6   5   -0.29    0.49
   4   6  -5    1.87    1.15
  -4   6   5    0.39    0.62
   2  -6  -5  226.87   19.07
   2  -6  -5  223.84   16.55
   2  -6  -5  215.88   17.46
   2  -6  -5  216.53   17.95
  -2  -6   5  200.30   17.62
   2   6  -5  250.93   16.21
  -2   6   5  238.07   16.48
   2   6  -5  262.18   17.48
  -2   6   5  196.22   16.33
  -2   6   5  224.42   16.35
   2   6  -5  236.82   16.22
   0  -6  -5  263.63   21.63
   0  -6   5  275.66   20.72
   0  -6  -5  280.90   20.03
   0  -6  -5  290.76   21.88
   0  -6  -5  288.07   19.96
   0   6   5  246.51   20.00
   0   6  -5  298.63   19.79
   0   6   5  282.25   20.01
   0   6  -5  288.68   20.38
   2  -6   5  131.31   10.78
  -2  -6  -5  135.77   10.21
  -2  -6  -5  140.02   12.17
  -2  -6  -5  135.69   12.04
  -2  -6  -5  133.54    9.80
   2   6   5  134.18   10.03
   2   6   5  136.26   10.16
  -2   6  -5  142.27   10.27
  -2   6  -5  150.00   10.60
  -2   6  -5  133.35    9.73
   2   6   5  135.12   10.04
  -4  -6  -5   31.11    3.43
  -4  -6  -5   24.47    4.86
  -4  -6  -5   16.52    5.06
   4  -6   5   32.68    3.90
   4  -6   5   33.81    5.47
   4   6   5   33.12    2.81
   4   6   5   31.57    3.08
   4   6   5   30.93    2.81
  -4   6  -5   36.54    6.76
  -4   6  -5   38.13    2.97
  -6  -6  -5   79.17    8.93
  -6  -6  -5   74.45    8.80
  -6  -6  -5   90.36    7.09
   6  -6   5   89.31    7.21
  -6   6  -5   93.31   10.91
   6   6   5   68.45    6.21
   6   6   5   89.34    6.63
   6   6   5   87.78    6.41
  -8  -6  -5  375.43   33.19
  -8  -6  -5  452.19   33.69
   8  -6   5  406.92   31.00
   8  -6   5  490.63   30.03
  -8  -6  -5  436.18   31.18
   8   6   5  416.50   30.27
  -8   6  -5  425.60   34.12
  -8   6  -5  454.67   34.54
   8   6   5  406.67   30.37
   8   6   5  396.64   30.51
  10  -6   5  131.08    9.59
 -10  -6  -5  130.58   14.74
  10  -6   5  132.04   10.84
 -10  -6  -5  120.20   14.00
 -10  -6  -5  126.73   11.06
  10   6   5  137.73    9.71
  10   6   5  126.62    9.80
 -10   6  -5  145.87   15.25
  10   6   5  121.88    9.99
 -10   6  -5  139.89   14.89
  10   6   5  149.64    9.83
 -12  -6  -5    1.69    6.78
 -12  -6  -5   12.55    6.62
  12  -6   5    2.89    2.47
  12  -6   5    2.34    0.89
 -12  -6  -5    4.51    3.30
 -12   6  -5    0.83    7.19
  12   6   5    1.18    1.58
 -12   6  -5    0.14    7.82
  12   6   5    1.60    1.16
  12   6   5    1.06    1.11
  14  -6   5   52.63    4.52
  14  -6   5   55.11    6.99
 -14  -6  -5   54.06    7.34
 -14  -6  -5   54.58   12.02
 -14  -6  -5   48.00   11.64
  14   6   5   51.74    4.78
 -14   6  -5   67.32   12.89
  14   6   5   61.47    5.05
 -14   6  -5   68.21   12.39
 -16  -6  -5  145.79   20.11
  16  -6   5  147.07   10.73
  16  -6   5  146.62   13.04
 -16  -6  -5  134.87   20.39
 -16  -6  -5  133.26   13.89
  16   6   5  142.61   11.09
  16   6   5  139.25   10.87
 -18  -6  -5   31.05   14.66
 -18  -6  -5   56.56    9.03
  18  -6   5   44.16    4.95
 -18  -6  -5   43.51   14.94
  18  -6   5   38.09    7.18
  18   6   5   41.99    5.05
  18   6   5   49.54    4.95
  17  -7  -5   16.67    3.47
 -17  -7   5    4.56    5.50
 -17   7   5   14.17    2.58
  17   7  -5   11.10    2.60
  17   7  -5   12.25    3.01
 -15  -7   5   -0.24    4.04
  15  -7  -5   12.09    3.62
  15  -7  -5    9.32    3.19
  15  -7  -5    4.32    2.64
  15   7  -5    8.10    2.12
  15   7  -5    7.43    2.12
 -15   7   5    5.52    1.65
  13  -7  -5   55.23    7.44
 -13  -7   5   72.58    7.30
  13  -7  -5   54.07    6.42
  13  -7  -5   43.57    6.53
  13   7  -5   68.85    5.33
 -13   7   5   56.25    5.01
  13   7  -5   55.38    5.27
  11  -7  -5  202.76   17.81
  11  -7  -5  224.65   16.88
 -11  -7   5  187.69   16.19
 -11  -7   5  207.99   16.00
  11  -7  -5  197.84   16.16
 -11   7   5  206.68   15.11
  11   7  -5  216.23   15.27
  11   7  -5  208.66   15.45
   9  -7  -5   59.76    7.91
  -9  -7   5   60.00    5.81
  -9  -7   5   67.38    6.20
   9  -7  -5   57.91    8.65
   9  -7  -5   67.41    6.03
   9   7  -5   55.36    4.90
  -9   7   5   61.07    5.05
   9   7  -5   58.55    4.81
   9   7  -5   57.11    4.55
   7  -7  -5   34.70    4.14
  -7  -7   5   29.82    3.98
  -7  -7   5   23.03    3.16
   7  -7  -5   21.16    6.47
   7  -7  -5   33.97    5.54
   7   7  -5   32.61    2.65
   7   7  -5   25.39    3.46
  -7   7   5   27.09    2.55
   7   7  -5   26.18    2.51
  -7   7   5   24.35    2.51
   7   7  -5   28.65    2.28
   5  -7  -5  347.71   24.86
   5  -7  -5  266.06   26.10
   5  -7  -5  356.66   24.85
  -5  -7   5  318.17   24.08
   5  -7  -5  325.84   24.98
  -5   7   5  312.79   23.21
   5   7  -5  342.05   23.94
  -5   7   5  318.79   23.21
   5   7  -5  345.58   22.83
  -5   7   5  325.59   23.45
   5   7  -5  326.29   23.17
   5   7  -5  311.43   23.02
   3  -7  -5  124.95   12.41
   3  -7  -5  132.66   11.30
   3  -7  -5  126.69   11.31
   3  -7  -5  116.55   10.66
   3  -7  -5  120.07    9.76
  -3  -7   5  121.88   10.44
  -3   7   5  133.79    9.47
   3   7  -5  137.23    9.17
   3   7  -5  143.78   10.07
  -3   7   5  118.43    9.57
  -3   7   5  130.65    9.44
   3   7  -5  121.25    9.28
   1  -7  -5   41.08    4.72
   1  -7  -5   51.14    6.56
  -1  -7   5   38.19    4.35
   1  -7  -5   41.96    6.03
   1  -7  -5   36.15    3.43
   1  -7  -5   32.45    5.21
  -1   7   5   32.83    3.21
  -1   7   5   38.73    3.32
  -1   7   5   42.04    3.27
   1  -7   5    7.94    2.14
  -1  -7  -5    3.52    2.73
  -1  -7  -5    8.25    1.19
  -1  -7  -5    7.02    3.17
  -1  -7  -5   12.34    1.69
   1   7   5    8.11    1.28
  -1   7  -5    9.39    1.61
   1   7   5    8.12    1.30
  -1   7  -5    8.32    0.99
   1   7   5    6.61    1.23
   3  -7   5   73.53    7.34
  -3  -7  -5   77.88    8.54
  -3  -7  -5   90.20    8.85
  -3  -7  -5   74.11    6.74
   3   7   5   82.57    6.43
   3   7   5   82.79    6.42
  -3   7  -5   93.45    6.13
   3   7   5   90.12    6.57
   5  -7   5  155.90   12.29
  -5  -7  -5  176.74   14.34
  -5  -7  -5  158.22   14.07
   5  -7   5  158.59   12.83
  -5  -7  -5  158.82   12.07
   5   7   5  146.87   11.57
   5   7   5  152.72   11.45
   5   7   5  155.83   11.52
  -7  -7  -5  161.44   15.56
  -7  -7  -5  182.01   13.43
   7  -7   5  162.49   13.33
  -7  -7  -5  189.13   15.75
   7   7   5  163.99   12.74
   7   7   5  182.47   12.71
   7   7   5  167.51   12.55
  -9  -7  -5    4.84    5.50
   9  -7   5    4.70    0.72
   9  -7   5    3.83    2.15
  -9  -7  -5    2.47    2.30
  -9  -7  -5    1.94    4.48
   9   7   5    5.16    1.91
   9   7   5    4.48    1.30
  -9   7  -5   15.18    5.99
   9   7   5    2.82    0.92
 -11  -7  -5  125.30   14.66
  11  -7   5  121.75    9.20
 -11  -7  -5  140.57   11.35
 -11  -7  -5  128.74   14.58
  11  -7   5  124.46   10.74
  11   7   5  120.71    9.69
 -11   7  -5  149.90   15.10
  11   7   5  129.09    9.96
  11   7   5  125.77    9.56
  13  -7   5  130.50    9.53
  13  -7   5  133.27   11.52
 -13  -7  -5  106.44   11.70
 -13  -7  -5  110.66   16.18
 -13  -7  -5  125.33   16.83
  13   7   5  149.87   10.53
 -13   7  -5  121.48   15.95
  13   7   5  133.87   10.08
  13   7   5  129.77    9.88
  15  -7   5   15.79    1.93
 -15  -7  -5    6.73    9.29
 -15  -7  -5   16.24    5.30
 -15  -7  -5   26.70    9.83
  15   7   5   10.27    2.29
  15   7   5   12.24    2.23
 -15   7  -5   -4.21   10.12
 -17  -7  -5   19.13   11.98
 -17  -7  -5   -9.74   11.33
 -17  -7  -5    7.87    5.63
  17  -7   5   -3.92    4.77
  17  -7   5    3.93    2.06
  17   7   5    4.42    2.15
  17   7   5    3.97    2.23
 -16  -8   5   73.11    9.78
  16  -8  -5   67.24    7.78
  16   8  -5   76.80    7.09
  16   8  -5   80.86    6.84
  16   8  -5   80.95    6.79
 -16   8   5   75.03    6.54
  14  -8  -5   41.42    5.76
 -14  -8   5   36.02    5.64
  14  -8  -5   33.97    4.49
  14  -8  -5   36.99    5.03
 -14   8   5   37.21    3.80
  14   8  -5   33.17    3.72
  14   8  -5   37.80    4.14
  14   8  -5   28.32    3.89
  12  -8  -5    3.62    2.76
  12  -8  -5    4.46    4.04
  12  -8  -5   -1.45    3.16
 -12  -8   5    4.04    3.09
 -12   8   5    2.57    1.33
  12   8  -5    3.43    1.68
  12   8  -5    0.81    1.33
  12   8  -5    0.33    1.18
  10  -8  -5   13.34    5.58
  10  -8  -5   18.37    4.59
 -10  -8   5   13.42    3.13
  10  -8  -5    8.75    2.96
 -10  -8   5   11.86    3.09
 -10   8   5   12.21    1.85
  10   8  -5   14.04    1.62
 -10   8   5   10.80    1.82
  10   8  -5   16.66    2.02
  10   8  -5   12.11    1.85
   8  -8  -5   71.24    7.22
  -8  -8   5   62.31    8.34
   8  -8  -5   73.91    9.31
   8  -8  -5   81.18   10.97
  -8  -8   5   84.66    7.55
   8   8  -5   83.70    6.07
   8   8  -5   88.91    6.21
  -8   8   5   66.57    6.14
  -8   8   5   68.62    6.17
   8   8  -5   86.15    5.81
  -6  -8   5  150.16   11.08
  -6  -8   5  144.73   11.41
   6  -8  -5  130.33   12.18
   6  -8  -5  152.96   12.30
   6  -8  -5  138.91   11.36
   6  -8  -5  145.51   12.61
   6  -8  -5  135.12   14.38
  -6   8   5  143.58   10.29
   6   8  -5  150.11    9.88
   6   8  -5  145.21   10.24
   6   8  -5  115.70   10.05
  -6   8   5  124.07   10.20
   4  -8  -5   -0.85    2.41
   4  -8  -5    5.43    3.72
   4  -8  -5    0.68    3.17
   4  -8  -5    1.01    3.24
   4  -8  -5    1.32    0.62
  -4  -8   5    0.42    2.05
   4   8  -5    2.63    1.20
   4   8  -5    1.75    0.39
   4   8  -5    2.31    0.77
  -4   8   5    3.54    1.21
  -4   8   5    2.22    0.86
  -4   8   5    3.62    0.88
   2  -8  -5   46.32    4.87
   2  -8  -5   33.31    6.31
  -2  -8   5   27.83    4.14
   2  -8  -5   30.49    3.55
   2  -8  -5   29.30    5.03
   2  -8  -5   40.50    5.67
  -2   8   5   30.31    3.01
  -2   8   5   33.04    3.16
  -2   8   5   38.66    3.08
   2   8  -5   38.18    2.92
   0  -8  -5  136.26   12.49
   0  -8  -5  142.53   10.60
   0  -8   5  131.63   10.19
   0  -8  -5  166.86   12.98
   0  -8   5  139.26   11.67
   0   8  -5  154.62   10.44
   0   8   5  140.57   10.65
   0   8   5  141.33   10.72
   0   8   5  155.72   10.67
  -2  -8  -5  237.78   19.57
  -2  -8  -5  228.31   19.31
   2  -8   5  246.83   18.28
  -2   8  -5  258.61   17.18
   2   8   5  235.37   17.35
   2   8   5  240.76   17.40
   2   8   5  231.51   17.39
   4  -8   5    0.98    2.05
  -4  -8  -5   10.71    3.48
  -4  -8  -5    4.90    1.85
  -4  -8  -5    5.60    3.71
   4   8   5    4.43    1.13
   4   8   5    6.50    1.24
  -4   8  -5    7.24    1.05
   4   8   5    6.26    1.09
  -6  -8  -5   87.16    7.02
  -6  -8  -5   63.35    9.94
   6  -8   5   80.35    7.36
  -6  -8  -5   72.65    9.31
   6   8   5   76.30    6.24
   6   8   5   74.87    6.21
   6   8   5   85.37    6.19
  -8  -8  -5   64.68   10.35
  -8  -8  -5   49.04    5.56
  -8  -8  -5   67.47    9.79
   8  -8   5   60.06    5.97
   8   8   5   54.77    4.78
 -10  -8  -5   41.06    5.39
 -10  -8  -5   32.14    8.38
  10  -8   5   27.07    4.21
 -10  -8  -5   29.19    8.25
  10  -8   5   30.15    2.59
  10   8   5   33.64    3.23
  10   8   5   43.55    3.84
  10   8   5   26.07    3.40
 -12  -8  -5   -0.35    7.40
  12  -8   5   13.77    1.61
 -12  -8  -5   10.59    7.42
  12  -8   5   13.34    3.16
 -12  -8  -5   15.00    4.13
  12   8   5    9.79    1.95
  12   8   5    6.17    1.82
  12   8   5   12.75    2.47
 -14  -8  -5   18.17    4.92
  14  -8   5   17.92    2.28
 -14  -8  -5   17.83   10.17
 -14  -8  -5   13.73    9.00
  14  -8   5   26.64    5.53
  14   8   5   19.01    2.78
  14   8   5   15.89    2.51
 -16  -8  -5   24.96   12.14
 -16  -8  -5   25.37    6.50
 -16  -8  -5   14.64   11.51
  16  -8   5   24.17    5.61
  16   8   5   23.18    3.05
  16   8   5   19.79    3.14
  17  -9  -5    1.78    3.62
 -17  -9   5    0.62    5.15
  17   9  -5    2.75    2.59
 -17   9   5    1.87    2.16
  17   9  -5    6.56    2.72
  17   9  -5    0.18    2.12
  15  -9  -5   10.89    3.85
 -15  -9   5   16.32    4.93
  15   9  -5   11.12    2.42
 -15   9   5   17.48    2.67
  15   9  -5   22.41    2.88
  15   9  -5   21.28    3.24
  13  -9  -5   19.28    3.76
  13  -9  -5   13.58    3.45
  13  -9  -5   17.99    4.62
 -13  -9   5    4.55    3.70
  13   9  -5    8.67    1.96
  13   9  -5   10.80    2.36
 -13   9   5    9.16    1.95
  13   9  -5   13.37    1.95
 -11  -9   5    1.48    2.77
  11  -9  -5   -0.17    2.44
 -11  -9   5    1.80    2.64
  11  -9  -5    2.23    4.23
  11  -9  -5    0.25    4.98
  11   9  -5    1.69    1.14
 -11   9   5    0.63    1.12
  11   9  -5   -0.52    1.12
  11   9  -5   -0.61    1.51
   9  -9  -5   23.58    4.18
   9  -9  -5   34.68    6.16
  -9  -9   5   31.39    4.40
   9  -9  -5   19.60    6.50
  -9  -9   5   30.46    4.43
   9   9  -5   29.39    2.64
  -9   9   5   31.76    2.93
   9   9  -5   26.90    3.05
   9   9  -5   30.44    2.90
  -9   9   5   24.79    2.92
   7  -9  -5    0.02    2.15
   7  -9  -5   10.35    4.41
  -7  -9   5   -1.68    2.45
   7  -9  -5    1.55    4.83
   7  -9  -5    0.00    3.76
   7  -9  -5    2.29    3.84
  -7  -9   5   -3.06    1.80
   7  -9  -5    0.19    0.67
   7   9  -5    1.72    1.03
  -7   9   5    0.49    0.94
   7   9  -5   -0.14    0.82
  -7   9   5   -2.55    0.90
   7   9  -5    0.27    0.71
   5  -9  -5   58.80    7.71
   5  -9  -5   77.11    8.02
  -5  -9   5   64.06    6.76
   5  -9  -5   63.68    7.33
   5  -9  -5   61.18    9.22
  -5   9   5   55.39    4.88
  -5   9   5   64.41    5.29
   5   9  -5   62.66    4.73
  -5   9   5   59.06    4.95
   5   9  -5   59.75    4.86
   3  -9  -5   68.16    8.61
   3  -9  -5   64.18    7.23
  -3  -9   5   61.32    6.36
   3  -9  -5   79.35    7.63
   3  -9  -5   58.55    6.53
  -3   9   5   54.29    4.71
   3   9  -5   57.67    4.24
  -3   9   5   58.48    4.81
   3   9  -5   56.80    4.65
  -3   9   5   60.00    4.99
   1  -9  -5    3.06    1.15
   1  -9  -5    0.81    1.36
   1  -9  -5   -2.26    2.88
   1  -9  -5    1.17    3.07
  -1  -9   5    0.51    2.12
   1   9  -5    1.32    0.76
  -1   9   5    2.21    0.89
  -1   9   5    0.91    0.93
  -1   9   5    0.37    0.88
  -1  -9  -5   -0.40    0.80
  -1  -9  -5   -1.25    2.79
  -1  -9  -5   -1.67    1.22
   1  -9   5    0.30    2.12
  -1  -9  -5   -2.00    3.14
   1   9   5   -0.44    0.78
  -1   9  -5   -0.25    0.66
   1   9   5    0.44    0.84
   1   9   5   -0.59    0.84
  -3  -9  -5   65.88    8.16
   3  -9   5   72.37    6.87
  -3  -9  -5   73.72    6.16
  -3  -9  -5   55.05    8.12
  -3   9  -5   81.91    5.36
   3   9   5   62.61    5.56
   3   9   5   71.57    5.61
   3   9   5   64.68    5.50
  -5  -9  -5   50.29    8.08
  -5  -9  -5   58.15    5.43
   5  -9   5   46.93    7.78
  -5  -9  -5   54.51    8.52
   5  -9   5   49.09    5.94
   5   9   5   57.51    4.62
   5   9   5   52.19    4.55
  -5   9  -5   59.90    4.33
   5   9   5   51.14    4.50
  -7  -9  -5   -2.24    4.29
   7  -9   5    0.70    2.19
  -7  -9  -5    1.96    5.59
  -7  -9  -5   -0.25    2.20
   7   9   5    1.36    1.12
   7   9   5   -0.15    1.19
  -9  -9  -5   -4.04    5.79
   9  -9   5    1.93    2.38
  -9  -9  -5   -0.67    5.11
  -9  -9  -5    2.78    3.10
   9   9   5    1.04    1.25
   9   9   5   -2.50    1.34
   9   9   5    2.93    1.21
 -11  -9  -5   15.00    4.31
  11  -9   5   14.57    3.70
 -11  -9  -5   13.95    6.76
 -11  -9  -5    5.08    7.04
  11   9   5   18.29    2.35
  11   9   5   13.96    2.18
  11   9   5   11.11    2.16
 -13  -9  -5   22.78    5.39
 -13  -9  -5   10.09    9.51
  13  -9   5   33.15    5.44
 -13  -9  -5   27.44    9.87
  13   9   5   25.48    3.29
  13   9   5   26.26    3.50
  15  -9   5    8.21    4.32
 -15  -9  -5   -3.18    4.60
 -15  -9  -5    9.39   10.08
 -15  -9  -5   10.07   10.92
  15   9   5    5.88    2.09
  15   9   5    3.98    2.24
  16 -10  -5    3.79    3.45
 -16 -10   5   -0.34    5.03
 -16  10   5    4.96    2.36
  16  10  -5    6.58    2.29
  16  10  -5    6.82    2.77
 -14 -10   5    0.41    3.92
  14 -10  -5    7.18    3.61
  14  10  -5    3.62    2.01
  14  10  -5    4.48    2.01
 -14  10   5    0.11    1.61
  14  10  -5    2.92    2.12
  12 -10  -5   -2.32    3.74
  12 -10  -5    6.60    3.23
  12 -10  -5    6.88    5.05
 -12 -10   5    0.84    3.25
  12  10  -5    2.04    1.42
  12  10  -5    3.22    1.85
  12  10  -5    1.43    1.50
 -12  10   5    3.03    1.57
 -10 -10   5    2.67    2.88
  10 -10  -5    3.97    3.05
 -10 -10   5    1.44    2.66
  10 -10  -5    3.20    4.83
  10 -10  -5   -0.70    5.61
 -10  10   5    4.20    1.33
  10  10  -5    1.17    1.35
 -10  10   5    4.66    1.54
  10  10  -5    5.93    2.03
  10  10  -5    4.49    1.29
   8 -10  -5    5.06    5.57
   8 -10  -5    6.03    4.61
   8 -10  -5   -0.32    2.84
  -8 -10   5    1.23    2.25
  -8 -10   5    4.16    2.82
   8  10  -5   -0.39    1.17
   8  10  -5    0.83    0.87
  -8  10   5    0.12    1.00
   8  10  -5    1.58    1.09
  -8  10   5   -1.45    1.09
  -6 -10   5   -1.24    1.87
   6 -10  -5    4.48    4.68
   6 -10  -5    0.21    0.89
   6 -10  -5   -3.71    4.18
   6 -10  -5    9.14    3.85
   6 -10  -5    2.89    4.99
  -6 -10   5    1.73    2.61
  -6  10   5    0.57    1.09
  -6  10   5    0.27    1.01
   6  10  -5    1.19    0.72
  -6  10   5   -2.62    1.57
   6  10  -5    1.84    0.96
   4 -10  -5    1.70    0.96
   4 -10  -5    2.91    2.72
   4 -10  -5    2.64    3.88
   4 -10  -5    2.63    3.46
   4 -10  -5    2.87    4.05
  -4 -10   5    1.88    2.78
  -4  10   5   -1.12    1.53
   4  10  -5   -0.63    0.75
   4  10  -5    0.71    0.76
  -4  10   5    3.14    1.13
   2 -10  -5   10.07    1.59
   2 -10  -5    6.99    2.14
   2 -10  -5    6.73    4.98
   2 -10  -5    5.81    2.65
  -2 -10   5    8.04    2.77
   2 -10  -5    9.75    3.93
   2 -10  -5    5.56    3.59
  -2  10   5    6.42    1.18
  -2  10   5    6.07    1.41
  -2  10   5    7.92    2.26
   2  10  -5    6.94    1.23
   0 -10  -5   16.36    4.14
   0 -10  -5   25.87    2.84
   0 -10  -5   21.74    2.77
   0 -10  -5   28.33    5.61
   0 -10   5   22.05    3.83
   0  10   5   16.54    2.20
   0  10  -5   21.75    2.19
   0  10   5   27.62    3.38
   0  10   5   23.04    2.43
  -2 -10  -5   11.36    6.61
  -2 -10  -5   10.23    2.26
   2 -10   5   10.94    3.20
  -2 -10  -5    7.06    3.90
  -2  10  -5   10.63    1.44
   2  10   5    9.49    1.86
   2  10   5   11.50    2.56
   2  10   5   11.24    1.57
   4 -10   5   13.23    3.14
  -4 -10  -5    6.61    2.31
  -4 -10  -5    4.48    4.46
  -4 -10  -5    6.28    7.62
   4  10   5    5.72    1.26
   4  10   5   10.06    1.79
  -4  10  -5   10.44    1.49
   4  10   5    8.21    1.68
  -6 -10  -5    9.59    2.71
  -6 -10  -5   13.84    5.62
   6 -10   5    8.55    2.90
  -6 -10  -5   -2.87    4.72
   6  10   5    6.66    1.61
   6  10   5    5.42    1.46
   6  10   5    2.81    1.40
  -8 -10  -5   -3.35    2.95
  -8 -10  -5    8.40    6.24
  -8 -10  -5    0.25    4.98
   8 -10   5    3.10    2.77
   8  10   5    0.62    1.26
   8  10   5    1.57    1.51
   8  10   5    1.80    1.34
 -10 -10  -5    2.82    5.86
  10 -10   5   -0.16    2.73
 -10 -10  -5    1.29    3.71
 -10 -10  -5   -9.47    5.39
  10  10   5    1.79    1.52
  10  10   5   -0.71    1.28
  10  10   5    0.00    1.48
 -12 -10  -5    1.49    4.01
 -12 -10  -5   -1.98    7.10
 -12 -10  -5   -2.13    7.34
  12 -10   5   -0.01    3.45
  12  10   5    1.52    1.78
  12  10   5    0.50    1.42
  14 -10   5    9.27    4.88
 -14 -10  -5   -3.75    8.53
 -14 -10  -5    7.37    9.94
 -14 -10  -5    1.47    4.76
  14  10   5   -3.70    1.95
  14  10   5    0.69    1.83
 -15 -11   5    7.67    5.00
  15 -11  -5   12.30    4.22
  15  11  -5    7.64    2.58
  15  11  -5   13.18    3.03
 -15  11   5   11.02    2.56
  13 -11  -5    7.85    3.73
 -13 -11   5    1.96    3.68
 -13  11   5    0.39    1.69
  13  11  -5    7.33    2.03
  13  11  -5    6.58    2.27
  11 -11  -5   -2.69    6.16
  11 -11  -5    0.83    5.04
 -11 -11   5   -0.75    2.98
  11 -11  -5    1.66    3.26
 -11 -11   5   -2.73    3.28
  11  11  -5   -1.79    1.50
  11  11  -5   -1.64    1.74
 -11  11   5    1.82    1.48
   9 -11  -5   -6.37    5.25
   9 -11  -5    3.15    6.66
  -9 -11   5   -3.90    2.37
  -9 -11   5    1.45    3.11
   9 -11  -5    2.45    3.28
   9  11  -5    0.56    1.35
  -9  11   5   -0.38    1.16
  -9  11   5    0.11    1.24
   9  11  -5   -1.81    1.33
   7 -11  -5   15.54    6.59
   7 -11  -5   12.15    5.51
   7 -11  -5    5.36    4.60
  -7 -11   5    0.67    3.17
  -7 -11   5    6.19    2.51
   7 -11  -5    0.17    3.09
  -7  11   5    2.08    1.21
   7  11  -5    5.36    1.58
   7  11  -5    2.50    1.45
  -7  11   5    5.15    1.44
  -5 -11   5    5.85    2.38
   5 -11  -5    7.71    1.31
   5 -11  -5   -1.81    4.85
  -5 -11   5    7.96    3.51
   5 -11  -5    2.83    4.51
   5 -11  -5    8.07    3.84
  -5  11   5    5.19    1.57
   5  11  -5    2.45    1.30
  -5  11   5    4.21    1.85
   5  11  -5    7.49    0.97
  -5  11   5    4.06    1.38
   3 -11  -5   20.72    7.26
  -3 -11   5   16.78    3.86
   3 -11  -5   20.23    2.57
   3 -11  -5   14.28    4.64
   3 -11  -5   29.88    6.34
   3 -11  -5   17.47    4.06
   3  11  -5   21.37    2.22
   3  11  -5   16.54    1.63
  -3  11   5   20.90    2.40
  -3  11   5   19.86    2.67
  -3  11   5   14.30    2.12
  -1 -11   5   17.86    3.93
   1 -11  -5   19.65    4.76
   1 -11  -5   18.49    5.36
   1 -11  -5   23.05    2.97
  -1  11   5   20.14    2.77
  -1  11   5   18.46    2.47
   1  11  -5   19.56    2.24
  -1  11   5   21.31    2.34
  -1 -11  -5    0.47    4.01
  -1 -11  -5   -3.55    3.56
   1 -11   5    5.24    2.99
  -1 -11  -5    2.23    1.80
  -1  11  -5    3.02    1.06
   1  11   5    4.29    1.43
   1  11   5    0.54    1.35
   1  11   5    2.51    0.97
  -3 -11  -5   75.58   10.27
  -3 -11  -5   64.79    6.69
   3 -11   5   81.95    7.89
  -3 -11  -5   73.21   10.22
   3  11   5   71.85    6.26
  -3  11  -5   80.22    5.98
   3  11   5   83.96    6.37
  -5 -11  -5   10.56    2.61
  -5 -11  -5    3.68    5.50
  -5 -11  -5   10.50    6.58
   5 -11   5    5.60    2.82
   5  11   5    8.70    1.90
  -5  11  -5    9.55    1.70
   5  11   5    8.57    1.45
   5  11   5    3.65    1.58
  -7 -11  -5    3.65    3.55
   7 -11   5    1.04    2.72
  -7 -11  -5    4.25    6.52
  -7 -11  -5    3.39    5.60
   7  11   5    3.75    1.58
   7  11   5    4.93    1.65
   7  11   5    5.65    1.45
  -9 -11  -5   -4.92    3.67
   9 -11   5    0.63    3.15
  -9 -11  -5    5.33    6.83
  -9 -11  -5    4.54    5.85
   9  11   5    1.35    1.78
   9  11   5    3.02    1.45
   9  11   5    2.80    1.46
 -11 -11  -5    2.26    7.51
 -11 -11  -5   12.64    8.48
  11 -11   5    3.81    4.92
 -11 -11  -5    0.00    4.09
  11  11   5    3.13    1.68
  11  11   5    4.58    1.93
 -13 -11  -5    8.66    9.49
 -13 -11  -5    5.85    9.60
 -13 -11  -5    1.32    5.03
  13 -11   5   -3.49    4.02
  13  11   5   -1.59    1.60
  13  11   5    2.19    2.12
 -14 -12   5    4.23    4.71
  14 -12  -5   -2.33    4.05
  14  12  -5   -1.76    2.53
  14  12  -5   -1.04    2.06
 -14  12   5    2.82    1.91
  12 -12  -5    1.39    3.46
 -12 -12   5   -2.65    3.66
  12  12  -5    1.80    1.90
  12  12  -5    3.50    2.32
 -12  12   5    0.92    1.74
  10 -12  -5   -0.39    3.37
  10 -12  -5    2.01    7.73
 -10 -12   5   -0.08    3.59
 -10 -12   5    2.11    2.94
  10 -12  -5    2.41    5.99
 -10  12   5   -1.68    1.31
  10  12  -5    2.03    1.64
 -10  12   5    0.46    1.45
   8 -12  -5   79.56   10.74
  -8 -12   5   65.76    7.41
   8 -12  -5   61.18    7.93
   8 -12  -5   66.11   12.57
  -8 -12   5   73.24    8.09
   8  12  -5   66.41    5.71
  -8  12   5   60.97    5.63
  -8  12   5   65.04    5.52
   6 -12  -5   57.90    8.23
   6 -12  -5   53.50    8.70
   6 -12  -5   36.07   10.89
  -6 -12   5   44.18    6.07
   6 -12  -5   74.97    9.93
   6 -12  -5   62.49    7.38
  -6 -12   5   56.09    7.36
  -6  12   5   57.24    4.92
   6  12  -5   44.27    4.77
  -6  12   5   56.62    5.68
  -6  12   5   63.93    4.87
   4 -12  -5   -0.67    1.39
   4 -12  -5   -3.27    6.01
   4 -12  -5    3.34    5.46
   4 -12  -5    1.26    5.25
  -4 -12   5    2.83    3.57
   4 -12  -5   -0.84    4.62
  -4  12   5    0.80    1.27
  -4  12   5    0.79    1.25
  -4  12   5    0.85    1.80
   4  12  -5   -0.15    1.50
   2 -12  -5   17.06    5.65
   2 -12  -5   18.02    4.87
  -2 -12   5   18.42    4.21
   2 -12  -5   24.74    7.28
   2 -12  -5   16.98    2.55
   2 -12  -5   21.11    5.42
  -2  12   5   19.20    2.56
  -2  12   5   14.52    2.64
   2  12  -5   19.99    2.40
   0 -12  -5   34.24    7.15
   0 -12   5   36.27    5.48
   0 -12  -5   61.10    8.65
   0 -12  -5   30.94    4.06
   0 -12  -5   33.69    3.31
   0  12   5   28.98    3.57
   0  12   5   32.00    3.33
   0  12   5   34.11    3.84
   0  12  -5   39.33    3.43
  -2 -12  -5   38.62    4.64
  -2 -12  -5   48.56    8.97
   2 -12   5   48.59    5.94
  -2 -12  -5   29.72    6.96
   2  12   5   36.23    3.41
   2  12   5   29.95    3.84
   2  12   5   33.57    3.80
  -2  12  -5   41.30    3.63
  -4 -12  -5    3.95    5.35
  -4 -12  -5   -2.87    2.44
  -4 -12  -5   -7.91    5.33
   4 -12   5   -2.49    2.95
   4  12   5   -0.56    1.16
   4  12   5   -0.51    1.49
   4  12   5   -1.65    1.23
  -4  12  -5    3.84    1.61
  -6 -12  -5   -4.86    6.03
   6 -12   5    9.72    3.63
  -6 -12  -5    3.65    3.65
  -6 -12  -5   13.13    6.35
   6  12   5    6.47    1.87
   6  12   5    4.58    1.65
   6  12   5    4.06    1.39
   8 -12   5   16.43    4.25
  -8 -12  -5    7.76    6.94
  -8 -12  -5   22.22    5.17
  -8 -12  -5   18.99    8.19
   8  12   5   16.56    2.19
   8  12   5   16.89    2.77
   8  12   5   17.90    2.74
 -10 -12  -5   44.82   11.29
 -10 -12  -5   45.21   10.71
 -10 -12  -5   66.75    7.85
  10  12   5   46.26    5.07
  10  12   5   51.34    5.06
 -12 -12  -5    7.45    9.12
 -12 -12  -5   18.90    9.18
  12 -12   5    3.99    4.35
 -12 -12  -5    5.32    4.94
  12  12   5    7.12    2.46
  12  12   5   -1.45    1.76
  13 -13  -5   68.54    9.52
 -13 -13   5   77.82   10.09
 -13  13   5   85.77    6.90
  13  13  -5   66.32    6.97
 -11 -13   5   44.85    6.67
  11 -13  -5   36.51    6.20
 -11  13   5   45.26    4.78
  11  13  -5   51.82    4.90
  -9 -13   5    9.66    3.63
   9 -13  -5    4.86   10.58
   9 -13  -5    5.66    3.85
   9 -13  -5    5.99    6.77
  -9 -13   5   11.79    4.43
  -9  13   5   12.74    2.23
  -9  13   5    9.06    2.17
   9  13  -5    8.02    2.17
   7 -13  -5    2.27    3.90
   7 -13  -5    3.28    8.63
  -7 -13   5    8.09    3.21
  -7 -13   5    9.85    4.35
  -7  13   5    2.12    1.59
   7  13  -5    3.57    1.75
  -7  13   5    4.03    1.46
  -5 -13   5   90.21    8.89
  -5 -13   5   91.75   10.14
   5 -13  -5   90.43   12.44
   5 -13  -5   83.49   11.87
   5 -13  -5   76.93   13.64
   5 -13  -5   83.36   11.78
  -5  13   5   99.85    7.59
  -5  13   5  101.28    8.43
  -5  13   5  100.11    7.67
   5  13  -5   97.94    7.67
   3 -13  -5   37.32    7.78
   3 -13  -5   45.23    7.14
   3 -13  -5   46.75    8.29
  -3 -13   5   45.14    6.34
   3 -13  -5   56.50   11.09
   3  13  -5   42.47    4.33
  -3  13   5   46.11    4.33
  -3  13   5   48.65    4.83
  -3  13   5   38.93    4.06
   1 -13  -5   19.80    8.41
   1 -13  -5   17.19    4.94
   1 -13  -5   17.42    2.82
  -1 -13   5   13.74    4.51
   1 -13  -5    3.29    5.91
   1  13  -5   16.03    2.76
  -1  13   5   12.50    2.30
  -1  13   5   18.99    2.30
  -1  13   5   14.02    2.61
  -1 -13  -5    3.22    5.75
  -1 -13  -5    5.42    6.49
   1 -13   5   -2.17    3.52
  -1 -13  -5    1.56    2.32
   1  13   5    1.12    1.57
   1  13   5    1.29    1.38
  -1  13  -5   -0.05    1.43
   1  13   5    1.06    1.43
   3 -13   5  107.65   10.21
  -3 -13  -5  111.41   12.76
  -3 -13  -5   76.02   12.61
   3  13   5   95.13    7.81
   3  13   5   89.23    7.66
   3  13   5   85.39    7.32
  -3  13  -5  101.65    7.55
  -5 -13  -5   73.59   11.95
  -5 -13  -5   54.67   11.12
  -5 -13  -5   71.60    8.20
   5 -13   5   69.02    8.80
   5  13   5   92.01    6.22
  -5  13  -5   82.28    6.60
   5  13   5   60.70    6.43
   5  13   5   76.09    6.55
  -7 -13  -5    9.76    7.89
   7 -13   5   11.85    4.35
  -7 -13  -5   11.98    8.10
  -7 -13  -5   15.27    4.94
   7  13   5   15.45    2.75
   7  13   5   13.43    2.51
   7  13   5   14.81    2.12
   9 -13   5   12.41    4.80
  -9 -13  -5    1.23    8.79
  -9 -13  -5   -9.40    7.72
  -9 -13  -5   11.15    5.02
   9  13   5    8.92    2.13
   9  13   5    4.37    2.33
 -11 -13  -5   33.29   11.30
 -11 -13  -5   30.60    6.18
  11 -13   5   16.92    5.44
 -11 -13  -5   19.92   11.32
  11  13   5   18.59    3.31
  11  13   5   23.84    3.41
 -10 -14   5   58.80    8.16
  10 -14  -5   38.94    7.02
  10  14  -5   59.75    5.75
 -10  14   5   67.28    5.63
 -10  14   5   52.08    5.41
   8 -14  -5  120.23   12.22
   8 -14  -5  152.15   17.62
   8 -14  -5  103.65   17.39
  -8 -14   5  115.73   12.33
  -8 -14   5  128.94   11.98
   8  14  -5  144.85   10.32
  -8  14   5  124.58   10.09
  -8  14   5  128.24   10.14
   6 -14  -5   45.19    6.95
  -6 -14   5   54.16    7.34
   6 -14  -5   39.72   12.40
   6 -14  -5   52.26    9.43
  -6 -14   5   52.81    7.11
  -6  14   5   58.11    6.29
  -6  14   5   53.25    4.89
   6  14  -5   44.54    5.09
  -6  14   5   60.08    5.14
   4 -14  -5   16.68    7.86
  -4 -14   5   13.91    5.22
   4 -14  -5   14.58    8.68
   4 -14  -5    9.26    3.25
  -4 -14   5    8.10    3.41
   4 -14  -5   12.30    5.82
  -4  14   5    9.69    2.79
  -4  14   5    9.06    1.99
   4  14  -5   10.09    2.27
  -4  14   5    4.50    1.94
   2 -14  -5   69.53   11.61
   2 -14  -5   53.68   10.05
   2 -14  -5   64.03    8.90
  -2 -14   5   75.72    9.39
   2 -14  -5   59.43   12.52
   2  14  -5   60.49    5.79
  -2  14   5   67.26    6.22
  -2  14   5   62.98    5.75
  -2  14   5   64.97    5.48
   0 -14  -5   51.17    9.85
   0 -14   5   60.29    8.25
   0 -14  -5   63.37   11.06
   0  14   5   53.75    5.96
   0  14  -5   66.19    5.89
   0  14   5   60.59    5.59
   0  14   5   69.16    5.41
  -2 -14  -5   27.79    4.22
  -2 -14  -5   17.69    7.39
   2 -14   5   23.67    5.68
  -2 -14  -5   12.48    7.90
   2  14   5   23.03    3.45
  -2  14  -5   29.35    3.44
   2  14   5   34.22    3.63
   2  14   5   25.35    3.19
  -4 -14  -5   21.58    8.47
   4 -14   5   23.56    5.50
  -4 -14  -5    5.44    7.08
  -4 -14  -5   16.65    4.93
   4  14   5   17.99    3.00
   4  14   5   18.20    3.12
   4  14   5   21.10    2.59
  -4  14  -5   21.17    2.92
   6 -14   5    9.17    4.69
  -6 -14  -5    9.38    5.01
  -6 -14  -5   17.10    8.24
  -6 -14  -5    9.09    7.96
   6  14   5   16.21    2.35
   6  14   5   12.66    2.70
   6  14   5    7.93    2.28
  -8 -14  -5  126.78   17.37
   8 -14   5  110.79   12.48
  -8 -14  -5  146.11   19.13
  -8 -14  -5  109.12   12.15
   8  14   5  109.78    9.74
   8  14   5  130.40    9.90
 -10 -14  -5   82.63   11.54
 -10 -14  -5   91.67   15.23
 -10 -14  -5   94.60   16.11
  10 -14   5  109.58   11.88
  10  14   5   92.77    8.37
  10  14   5  100.57    8.50
   9 -15  -5   -3.54    4.55
  -9 -15   5   -8.88    3.90
   9  15  -5    1.98    2.23
  -9  15   5    0.76    1.99
  -9  15   5    1.59    2.03
   7 -15  -5   26.39    9.75
   7 -15  -5   28.03    5.91
  -7 -15   5   28.72    5.67
   7 -15  -5   24.38   12.89
  -7  15   5   26.10    3.52
  -7  15   5   31.39    3.68
   7  15  -5   25.04    3.67
  -5 -15   5   14.55    6.06
   5 -15  -5   30.85    6.09
  -5 -15   5   23.21    4.87
   5 -15  -5   27.95    8.30
   5 -15  -5   24.57   11.37
  -5  15   5   32.87    4.57
  -5  15   5   24.87    3.27
   5  15  -5   29.48    3.66
  -5  15   5   26.19    3.47
   3 -15  -5   98.07   13.68
  -3 -15   5  120.28   13.51
   3 -15  -5  128.86   17.16
  -3 -15   5  123.73   11.27
   3 -15  -5  123.52   16.65
   3 -15  -5  130.07   18.11
  -3  15   5  106.45    9.34
  -3  15   5  128.85    9.66
  -3  15   5  117.18   10.24
   3  15  -5  132.00    9.79
   1 -15  -5   49.81    8.16
   1 -15  -5   54.26   11.23
   1 -15  -5   50.23   10.79
  -1 -15   5   64.13    8.13
   1 -15  -5   51.50   12.34
  -1  15   5   49.27    5.00
  -1  15   5   44.75    4.72
   1  15  -5   46.77    5.22
  -1  15   5   46.38    5.46
   1 -15   5   15.12    6.33
  -1 -15  -5   27.13    8.75
  -1 -15  -5   38.57   10.15
  -1 -15  -5   23.67    4.14
   1  15   5   35.36    3.45
  -1  15  -5   26.86    3.59
   1  15   5   15.89    3.07
   1  15   5   22.54    3.57
   3 -15   5   91.38   12.10
  -3 -15  -5   80.51   13.59
  -3 -15  -5  124.40   16.08
   3  15   5   97.18    8.01
  -3  15  -5  106.54    8.58
   3  15   5   90.87    8.20
   3  15   5   85.44    7.53
  -5 -15  -5  133.34   17.54
  -5 -15  -5  112.58   16.62
  -5 -15  -5  126.30   12.42
   5  15   5  128.80   10.40
   5  15   5  124.79   10.20
   5  15   5  125.41    9.72
  -7 -15  -5   12.61    9.85
  -7 -15  -5    9.72    8.97
  -7 -15  -5   16.02    5.59
   7 -15   5   22.29    5.71
   7  15   5    8.29    2.58
   7  15   5   15.22    2.94
   6 -16  -5   32.24   10.96
   6 -16  -5   38.86   14.59
  -6 -16   5   59.23    8.22
   6 -16  -5   61.63    8.37
  -6  16   5   48.73    5.52
  -6  16   5   58.23    5.52
   6  16  -5   62.36    6.13
   4 -16  -5    7.96   11.00
   4 -16  -5    7.64   12.12
  -4 -16   5   18.75    4.64
   4 -16  -5   14.16    8.09
  -4  16   5   13.47    3.66
  -4  16   5   12.75    2.62
  -4  16   5   11.49    2.45
   4  16  -5    7.39    2.86
  -2 -16   5   42.95    8.42
   2 -16  -5   56.02    9.27
   2 -16  -5   37.80   11.98
   2 -16  -5   51.70   12.11
  -2 -16   5   34.04    6.23
   2 -16  -5   52.66   12.68
  -2  16   5   50.14    5.88
  -2  16   5   54.86    4.86
   2  16  -5   33.05    4.71
  -2  16   5   43.51    4.97
   0 -16  -5  118.13   19.50
   0 -16  -5   95.34   15.97
   0 -16  -5  137.24   18.36
   0 -16  -5  129.40   14.40
   0 -16   5  114.32   13.06
   0  16   5  121.96   10.29
   0  16   5  118.90    9.71
   0  16   5  120.67    9.45
   0  16  -5  117.43   10.05
  -2 -16  -5   50.64   11.98
   2 -16   5   44.00    8.73
  -2 -16  -5   39.08   11.56
   2  16   5   43.64    4.76
   2  16   5   43.78    5.15
  -2  16  -5   54.13    6.28
   2  16   5   46.12    5.74
  -4 -16  -5   -0.41    9.71
   4 -16   5   -0.18    6.49
  -4 -16  -5   -0.13    5.42
  -4 -16  -5   18.35    9.54
   4  16   5    4.60    2.48
   4  16   5    5.93    2.26
   4  16   5    3.03    2.38
 -18   0   6  137.48   13.71
  18   0  -6  128.42   11.03
 -16   0   6  122.75    9.14
  16   0  -6  125.72   10.94
 -16   0   6  135.75   12.10
  16   0  -6  116.39   10.17
 -16   0   6  114.14   11.64
 -14   0   6   20.68    2.18
 -14   0   6   19.14    3.75
  14   0  -6   23.09    4.94
  14   0  -6   21.63    3.95
  14   0  -6   23.88    3.41
 -12   0   6  132.20   10.34
 -12   0   6  124.01    9.16
  12   0  -6  122.91   10.15
  12   0  -6  123.95   10.67
  10   0  -6  421.61   30.10
  10   0  -6  419.59   31.68
 -10   0   6  411.71   29.94
  10   0  -6  414.90   30.82
 -10   0   6  407.21   29.30
   8   0  -6  246.15   19.45
   8   0  -6  242.01   17.56
  -8   0   6  233.66   17.17
  -8   0   6  223.85   16.81
  -8   0   6  224.29   17.59
   8   0  -6  251.72   18.54
   6   0  -6   65.86    7.06
   6   0  -6   78.31    6.05
  -6   0   6   66.01    6.04
   6   0  -6   64.42    7.97
  -6   0   6   71.35    5.42
  -6   0   6   67.15    5.28
   4   0  -6  193.26   15.98
  -4   0   6  190.69   13.99
  -4   0   6  182.64   13.18
   4   0  -6  179.76   14.97
  -4   0   6  185.67   13.47
   4   0  -6  184.58   13.95
   2   0  -6  884.42   58.89
  -2   0   6  790.07   55.51
   2   0  -6  754.58   57.11
   2   0  -6  783.93   56.21
   2   0  -6  709.69   58.07
   2   0  -6  839.94   58.88
  -2   0   6  798.56   56.24
   0   0  -6  245.37   19.65
   0   0   6  263.92   18.14
   0   0  -6  265.97   21.88
   0   0  -6  276.61   18.88
   0   0  -6  273.15   21.87
   0   0   6  257.14   18.82
   0   0  -6  215.54   20.48
  -2   0  -6  248.86   19.42
   2   0   6  206.34   15.23
  -2   0  -6  195.38   17.47
  -2   0  -6  207.81   16.54
  -2   0  -6  221.40   15.83
   2   0   6  227.10   15.89
  -2   0  -6  205.50   18.80
  -4   0  -6   58.24    7.09
   4   0   6   67.11    4.95
  -4   0  -6   81.27    9.61
  -4   0  -6   64.10    6.24
  -4   0  -6   63.71    8.71
   4   0   6   68.11    4.88
  -4   0  -6   66.31    6.14
   4   0   6   68.61    5.56
   6   0   6  833.65   59.38
  -6   0  -6  833.89   60.98
  -6   0  -6  854.01   60.19
  -6   0  -6  830.60   59.79
  -6   0  -6  802.97   62.53
   6   0   6  866.85   58.76
   8   0   6  302.32   20.60
  -8   0  -6  249.09   24.45
  -8   0  -6  306.73   21.73
  -8   0  -6  284.06   22.19
  -8   0  -6  318.26   23.17
   8   0   6  300.40   21.38
  -8   0  -6  253.26   24.19
 -10   0  -6    8.52    3.05
  10   0   6    6.79    2.05
  10   0   6   11.23    1.16
  10   0   6   12.88    1.50
 -10   0  -6   11.08    6.32
 -10   0  -6    7.55    5.52
 -10   0  -6   11.45    2.61
 -10   0  -6   15.96    4.18
  12   0   6   64.15    5.21
 -12   0  -6   60.98    7.88
 -12   0  -6   77.30    6.91
 -12   0  -6   76.40   13.55
  12   0   6   66.46    6.19
 -12   0  -6   73.74   12.58
  12   0   6   62.87    4.88
 -14   0  -6  118.74   18.92
  14   0   6  144.05   10.88
 -14   0  -6  154.97   14.37
 -14   0  -6  132.82   19.20
 -14   0  -6  133.10   13.58
  14   0   6  153.75   11.91
  14   0   6  136.12   10.40
 -14   0  -6  163.93   12.48
 -16   0  -6   74.56   11.64
  16   0   6   73.95    8.02
 -16   0  -6   70.53    9.85
 -16   0  -6   60.37   16.03
  16   0   6   69.67    6.06
 -16   0  -6   52.47   15.10
 -18   0  -6    4.24   15.26
 -18   0  -6    1.04    5.50
  18   0   6    6.64    4.71
 -18   0  -6   20.97   15.69
  18   0   6    7.59    2.27
  19  -1  -6   30.39    4.70
 -19  -1   6   32.64    8.02
 -19   1   6   27.60    8.27
  19   1  -6   38.20    4.94
  17  -1  -6   12.19    3.00
 -17  -1   6   25.72    6.39
  17  -1  -6    8.12    3.75
 -17  -1   6   12.40    5.20
  17   1  -6    8.37    2.70
 -17   1   6    6.78    4.94
 -17   1   6   13.75    2.15
 -15  -1   6  126.01    9.21
  15  -1  -6  119.70   11.04
  15  -1  -6  148.73   12.26
  15  -1  -6  133.02   10.45
 -15  -1   6  115.69   11.33
 -15   1   6  118.04   11.11
  15   1  -6  123.47   10.22
  15   1  -6  129.73   10.98
 -15   1   6  128.55    9.30
 -15   1   6  104.37   10.93
  13  -1  -6  269.01   20.00
  13  -1  -6  285.95   21.53
  13  -1  -6  262.96   20.37
 -13  -1   6  263.52   18.89
 -13  -1   6  241.06   20.04
  13   1  -6  296.51   21.56
  13   1  -6  256.46   19.77
 -13   1   6  258.23   18.99
  11  -1  -6    8.76    2.77
 -11  -1   6    4.37    2.28
  11  -1  -6    5.97    1.92
  11  -1  -6    7.94    3.19
 -11  -1   6    7.43    0.98
 -11   1   6    8.17    1.13
  11   1  -6    5.76    1.69
 -11   1   6    8.58    2.15
  11   1  -6    4.41    2.38
  11   1  -6    4.87    2.94
  -9  -1   6   16.42    2.56
   9  -1  -6   24.46    3.19
  -9  -1   6   19.22    1.76
   9  -1  -6   16.62    3.48
  -9  -1   6   16.35    2.89
   9  -1  -6   15.03    3.95
   9   1  -6   24.03    4.44
  -9   1   6   19.77    1.86
   9   1  -6   18.69    3.39
   9   1  -6   20.19    2.66
  -9   1   6   16.39    2.51
   7  -1  -6  105.59    8.08
  -7  -1   6   92.61    8.03
  -7  -1   6   97.93    7.49
   7  -1  -6   94.97   10.04
  -7  -1   6  104.30    7.14
   7  -1  -6   94.34    9.03
   7   1  -6   87.67    8.60
  -7   1   6   92.62    7.33
   7   1  -6   88.17    9.36
   7   1  -6   96.63    7.71
  -7   1   6   93.40    7.91
  -7   1   6  101.64    7.18
   5  -1  -6  239.56   22.87
   5  -1  -6  309.47   22.27
  -5  -1   6  304.18   20.40
  -5  -1   6  305.96   20.49
   5  -1  -6  319.74   22.72
   5  -1  -6  297.33   21.10
   5   1  -6  297.01   20.80
   5   1  -6  279.63   21.74
  -5   1   6  288.35   20.21
  -5   1   6  296.36   20.28
  -5   1   6  256.32   20.35
  -5   1   6  246.54   21.13
   5   1  -6  262.70   22.56
   3  -1  -6  280.40   20.79
  -3  -1   6  271.56   18.32
  -3  -1   6  262.36   17.36
  -3  -1   6  244.29   17.73
   3  -1  -6  206.44   18.96
   3  -1  -6  216.60   20.24
   3  -1  -6  238.15   18.13
   3  -1  -6  258.38   20.56
   3   1  -6  245.37   19.04
  -3   1   6  264.68   17.78
   3   1  -6  292.72   20.92
   3   1  -6  223.29   19.86
  -3   1   6  252.53   18.11
  -3   1   6  245.32   17.45
   3   1  -6  210.24   17.89
   1  -1  -6    2.26    1.36
   1  -1  -6   -4.35    3.48
  -1  -1   6    1.05    0.34
   1  -1  -6    1.15    3.94
   1  -1  -6   -0.22    1.78
   1  -1  -6   -1.50    2.54
  -1  -1   6   -1.45    1.00
  -1   1   6    0.61    0.40
   1   1  -6   -1.26    3.58
   1   1  -6    0.99    2.59
   1   1  -6    0.59    1.58
   1   1  -6    2.31    3.91
  -1   1   6   -0.74    0.99
   1   1  -6    0.88    1.93
  -1  -1  -6  372.65   26.95
   1  -1   6  346.26   26.20
  -1  -1  -6  314.88   27.84
  -1  -1  -6  362.69   28.73
  -1  -1  -6  381.79   26.12
  -1  -1  -6  321.10   28.39
   1  -1   6  394.02   25.52
  -1   1  -6  327.23   27.81
  -1   1  -6  400.62   29.59
  -1   1  -6  370.81   26.22
   1   1   6  387.38   26.18
   1   1   6  361.89   25.59
  -1   1  -6  390.50   29.54
  -1   1  -6  317.69   26.80
   1   1   6  380.15   25.64
   3  -1   6  503.02   35.66
  -3  -1  -6  497.53   37.40
  -3  -1  -6  505.09   35.93
  -3  -1  -6  474.44   36.09
  -3  -1  -6  488.38   38.18
  -3  -1  -6  502.52   38.33
  -3  -1  -6  508.14   35.42
   3  -1   6  536.22   35.02
   3   1   6  491.53   35.03
  -3   1  -6  478.19   36.22
   3   1   6  482.47   35.05
  -3   1  -6  512.69   38.91
   3   1   6  492.09   35.53
  -3   1  -6  505.34   38.86
  -3   1  -6  492.12   35.56
  -5  -1  -6  115.47   10.05
  -5  -1  -6   97.07   11.18
   5  -1   6   98.54    7.99
  -5  -1  -6  113.99    8.65
  -5  -1  -6  113.99   11.48
  -5  -1  -6  109.72    8.64
  -5   1  -6   83.34   11.73
   5   1   6  110.42    7.99
   5   1   6  105.72    7.35
  -5   1  -6   82.51    8.48
  -5   1  -6   85.63    9.40
  -5   1  -6   93.74   11.66
   5   1   6  100.78    7.45
  -5   1  -6  105.16    8.96
  -5   1  -6  100.70    7.23
  -7  -1  -6   31.03    6.69
  -7  -1  -6   21.02    6.42
  -7  -1  -6   30.24    4.02
   7  -1   6   22.29    3.23
  -7  -1  -6   31.81    3.88
  -7  -1  -6   33.86    5.45
   7  -1   6   31.63    2.20
   7   1   6   28.96    2.33
  -7   1  -6   24.56    4.03
  -7   1  -6   24.33    4.48
   7   1   6   29.60    3.08
  -7   1  -6   20.62    6.69
  -7   1  -6   32.85    4.19
  -7   1  -6   29.27    7.18
   9  -1   6  127.90    9.90
  -9  -1  -6  134.51   10.74
   9  -1   6  122.89    9.11
  -9  -1  -6  112.66   12.95
  -9  -1  -6  114.54   12.90
   9   1   6  122.90    8.94
  -9   1  -6  142.26   10.28
  -9   1  -6  124.96   10.99
   9   1   6  129.45    9.79
  -9   1  -6  120.48   14.41
  -9   1  -6   96.32   13.08
  -9   1  -6  116.86   11.20
 -11  -1  -6  112.66   12.99
 -11  -1  -6  111.94   13.68
  11  -1   6  110.92    9.23
  11  -1   6  117.44    8.03
 -11  -1  -6  102.59   14.74
  11  -1   6  105.45    8.35
  11   1   6  111.37    8.14
  11   1   6  118.00    8.47
 -11   1  -6   97.89   14.60
 -11   1  -6   95.05   13.92
 -11   1  -6  117.22   10.87
 -11   1  -6  112.43    9.54
  11   1   6  118.75    9.19
  13  -1   6  101.92    7.83
 -13  -1  -6   98.72   10.50
  13  -1   6  100.74    8.88
  13  -1   6  101.85    7.38
 -13  -1  -6  125.83   16.72
 -13  -1  -6  113.81   16.73
  13   1   6  100.78    7.50
 -13   1  -6  105.40   10.51
 -13   1  -6   82.42   15.45
  13   1   6  101.12    8.75
 -13   1  -6  110.19   10.94
 -13   1  -6  104.33    9.38
  13   1   6  101.18    7.94
 -15  -1  -6    1.17   10.02
  15  -1   6    3.98    2.90
  15  -1   6   -0.80    1.32
 -15  -1  -6    3.89   10.63
 -15  -1  -6   -4.77    3.64
  15   1   6    1.93    1.44
 -15   1  -6    5.70    4.49
  15   1   6    3.11    2.87
 -15   1  -6   14.03   11.84
 -15   1  -6    2.28    5.46
 -15   1  -6   -5.73   10.68
  15   1   6    2.96    1.01
  17  -1   6   76.78    6.70
 -17  -1  -6   89.30   17.70
 -17  -1  -6   93.89   13.56
 -17  -1  -6  107.76   13.27
 -17  -1  -6   61.21   17.11
  17  -1   6   88.63    9.17
 -17  -1  -6   76.76   10.75
 -17   1  -6   59.52   17.41
 -17   1  -6   53.69    9.68
 -17   1  -6   83.63   18.49
  17   1   6   87.73    9.13
  17   1   6   72.53    6.70
 -19  -1  -6  100.71   22.35
 -19  -1  -6   55.54   10.43
 -19  -1  -6   93.63   21.98
  19  -1   6   80.01    7.05
 -19   1  -6   57.17   10.88
  19   1   6   79.55    6.99
 -19   1  -6   87.38   22.17
 -19   1  -6   83.48   22.73
  18  -2  -6   42.49    5.44
 -18  -2   6   47.67    7.77
 -18   2   6   40.38    8.10
 -18   2   6   36.47    4.47
  18   2  -6   43.47    5.31
  16  -2  -6   53.30    6.61
 -16  -2   6   49.55    7.17
  16  -2  -6   49.46    5.63
 -16   2   6   46.26    4.36
  16   2  -6   46.63    6.44
  16   2  -6   51.75    5.40
 -16   2   6   39.70    6.48
  14  -2  -6   18.80    3.35
  14  -2  -6   18.10    3.53
  14  -2  -6   19.71    4.98
 -14  -2   6   22.98    2.07
  14   2  -6   19.90    3.97
  14   2  -6   21.48    3.16
 -14   2   6   24.52    4.06
 -14   2   6   16.80    2.20
  12  -2  -6    4.44    2.93
  12  -2  -6    6.10    2.27
 -12  -2   6    3.14    2.45
  12  -2  -6    4.95    2.64
 -12  -2   6    4.57    0.85
  12   2  -6    6.40    2.17
  12   2  -6    4.41    3.33
 -12   2   6    4.05    2.27
  12   2  -6    3.25    2.00
 -12   2   6    4.61    0.93
  10  -2  -6  197.06   15.12
  10  -2  -6  186.51   14.25
  10  -2  -6  174.03   15.87
 -10  -2   6  189.69   14.33
 -10  -2   6  192.44   14.07
 -10  -2   6  179.76   13.12
  10   2  -6  175.80   13.78
  10   2  -6  208.59   15.62
 -10   2   6  201.62   15.18
 -10   2   6  155.73   17.21
 -10   2   6  170.52   13.27
  10   2  -6  179.04   14.57
  -8  -2   6  451.16   33.44
   8  -2  -6  463.63   34.45
   8  -2  -6  430.06   35.48
  -8  -2   6  476.23   33.13
  -8  -2   6  454.70   32.52
   8  -2  -6  462.24   33.51
   8   2  -6  433.02   33.84
  -8   2   6  451.57   35.30
   8   2  -6  489.75   34.83
  -8   2   6  416.46   32.77
  -8   2   6  499.17   32.70
   8   2  -6  505.16   33.15
  -6  -2   6    4.65    1.79
   6  -2  -6    3.75    1.67
  -6  -2   6    4.95    0.84
   6  -2  -6    5.90    2.92
   6  -2  -6    3.43    3.02
   6  -2  -6    2.65    2.89
  -6  -2   6    3.99    1.09
  -6   2   6    8.34    8.32
  -6   2   6    4.14    0.77
  -6   2   6    3.12    0.84
  -6   2   6    3.00    1.45
   6   2  -6    7.16    2.65
   6   2  -6    3.55    1.28
   6   2  -6    2.94    2.01
   4  -2  -6  115.57   12.97
   4  -2  -6  141.82   13.02
   4  -2  -6  153.12   11.03
  -4  -2   6  142.31   10.19
   4  -2  -6  112.83   11.68
   4  -2  -6  133.94   13.10
  -4   2   6  142.23   10.57
  -4   2   6  138.22    9.85
  -4   2   6  141.73   10.20
   4   2  -6  137.62   11.37
   4   2  -6  151.93   10.43
  -4   2   6  143.37   10.00
   4   2  -6  124.55   12.04
   2  -2  -6  303.95   21.78
   2  -2  -6  305.81   22.96
  -2  -2   6  295.89   21.04
   2  -2  -6  319.43   24.41
   2  -2  -6  289.55   24.03
  -2  -2   6  299.76   22.01
  -2   2   6  323.47   21.44
  -2   2   6  296.61   21.74
   2   2  -6  320.17   24.44
  -2   2   6  273.72   21.47
   2   2  -6  315.63   22.70
   2   2  -6  282.76   23.41
  -2   2   6  291.14   21.24
  -2   2   6  321.15   21.44
   2   2  -6  273.17   21.06
   0  -2   6  123.68    8.11
   0  -2  -6  117.87    8.83
   0  -2  -6  111.24    9.71
   0  -2   6  122.77    9.09
   0  -2  -6  100.59   10.80
   0  -2  -6   97.57   11.00
   0   2  -6  136.39    9.98
   0   2   6  116.65    8.77
   0   2   6  106.10    8.59
   0   2  -6  103.65   10.41
   0   2  -6   85.65   11.35
   0   2   6  114.52    8.35
   0   2   6  112.37    8.27
   0   2  -6  131.31   12.25
  -2  -2  -6   17.59    2.27
  -2  -2  -6   13.91    2.67
  -2  -2  -6   17.32    4.17
   2  -2   6   18.83    1.44
  -2  -2  -6    8.85    4.28
  -2  -2  -6   20.90    2.59
   2  -2   6   14.77    2.25
  -2  -2  -6   21.34    5.18
   2   2   6   19.27    1.65
  -2   2  -6   15.69    5.38
  -2   2  -6   14.45    3.10
   2   2   6   18.01    1.61
  -2   2  -6   14.33    4.90
  -2   2  -6   12.88    3.50
   2   2   6   15.23    2.13
  -4  -2  -6   10.20    3.46
  -4  -2  -6   12.12    3.97
   4  -2   6    8.79    1.78
  -4  -2  -6    6.18    3.74
  -4  -2  -6    8.94    2.12
  -4  -2  -6   16.38    2.41
   4   2   6    7.55    1.51
   4   2   6    9.80    1.13
   4   2   6   11.49    1.20
  -4   2  -6    9.89    2.56
  -4   2  -6    7.81    2.88
  -4   2  -6   20.11    5.65
  -4   2  -6   13.75    5.71
  -6  -2  -6  137.93   13.66
  -6  -2  -6  155.05   14.06
   6  -2   6  135.01   10.74
  -6  -2  -6  152.40   11.17
   6   2   6  143.46   10.08
  -6   2  -6  121.12   11.80
  -6   2  -6  114.49   14.38
   6   2   6  136.62    9.95
  -6   2  -6  108.48   14.11
  -6   2  -6  149.28   11.94
  -6   2  -6  150.81   11.33
   6   2   6  136.71   10.41
  -8  -2  -6  186.18   16.38
   8  -2   6  158.13   12.81
  -8  -2  -6  172.59   16.32
  -8  -2  -6  177.09   13.46
  -8   2  -6  162.17   13.16
  -8   2  -6  146.56   16.53
  -8   2  -6  142.38   13.77
  -8   2  -6  180.12   14.15
   8   2   6  176.67   12.05
  -8   2  -6  148.47   16.63
   8   2   6  187.85   12.63
 -10  -2  -6   67.82   11.93
  10  -2   6   69.74    5.05
  10  -2   6   76.36    6.20
 -10  -2  -6   70.81   10.97
 -10  -2  -6   68.55    6.71
 -10   2  -6   66.61    7.37
 -10   2  -6   40.66   10.28
 -10   2  -6   64.16    6.61
  10   2   6   68.64    5.89
  10   2   6   64.55    4.91
 -10   2  -6   49.94    9.86
 -10   2  -6   51.39    7.15
  12  -2   6   49.32    3.92
 -12  -2  -6   50.85    6.29
 -12  -2  -6   57.19   11.39
  12  -2   6   43.67    5.20
 -12  -2  -6   41.63   10.13
 -12   2  -6   46.99    6.84
 -12   2  -6   38.27    9.78
  12   2   6   49.06    5.24
 -12   2  -6   53.19   12.63
  12   2   6   46.54    3.73
 -12   2  -6   42.69    6.38
  12   2   6   46.04    4.18
 -12   2  -6   50.62    6.14
  14  -2   6   96.08    8.94
 -14  -2  -6   96.70   16.47
 -14  -2  -6   93.54   15.88
  14  -2   6  100.51    7.63
 -14  -2  -6  104.23   10.45
 -14   2  -6  113.23   17.39
  14   2   6  106.67    8.79
  14   2   6  100.37    7.29
 -14   2  -6   84.78   10.66
  14   2   6   97.25    7.77
 -14   2  -6  108.91   17.88
 -14   2  -6   77.07   10.37
 -16  -2  -6   49.95    7.89
 -16  -2  -6   60.76   14.67
  16  -2   6   47.46    4.45
 -16  -2  -6   43.21   13.95
  16  -2   6   47.66    6.00
  16   2   6   41.56    4.50
 -16   2  -6   33.14    7.81
  16   2   6   51.18    5.96
 -16   2  -6   22.57   13.99
 -16   2  -6   42.91   15.91
  16   2   6   45.31    3.87
  18  -2   6   12.78    2.62
 -18  -2  -6   12.19    6.09
 -18  -2  -6   -0.24   13.63
 -18  -2  -6   23.77   15.54
  18  -2   6   17.19    5.52
 -18   2  -6    8.01    5.87
  18   2   6    7.19    5.11
 -18   2  -6   -3.36   15.84
  18   2   6   11.78    2.57
 -18   2  -6   13.54   17.22
  19  -3  -6   16.93    3.63
 -19  -3   6    3.85   10.38
 -19  -3   6   28.81    6.99
  19   3  -6   14.38    3.32
 -19   3   6   13.50    2.86
 -19   3   6   18.81    8.32
  17  -3  -6   16.51    3.45
 -17  -3   6    1.61    6.24
  17  -3  -6    6.83    3.62
 -17  -3   6   19.44    5.67
 -17   3   6   -3.84    5.87
 -17   3   6    7.32    2.08
  17   3  -6   11.45    2.67
  15  -3  -6   68.03    6.93
 -15  -3   6   69.20    8.23
  15  -3  -6   83.59   10.19
  15  -3  -6   72.67    8.55
 -15   3   6   60.45    5.49
  15   3  -6   68.19    6.29
  15   3  -6   63.76    7.25
 -15   3   6   70.40    8.12
  13  -3  -6   36.26    7.25
  13  -3  -6   37.95    4.79
 -13  -3   6   31.64    2.60
  13  -3  -6   28.54    4.61
 -13  -3   6   29.52    4.63
  13   3  -6   37.89    5.03
  13   3  -6   34.71    3.85
 -13   3   6   32.13    2.88
 -13   3   6   21.81    4.18
 -11  -3   6   26.57    3.62
  11  -3  -6   23.36    4.29
 -11  -3   6   21.99    3.46
 -11  -3   6   24.37    1.90
  11  -3  -6   22.24    5.05
  11   3  -6   23.99    2.86
 -11   3   6   20.05    2.12
  11   3  -6   20.00    3.28
 -11   3   6   16.33    3.02
  11   3  -6   23.71    4.62
   9  -3  -6    6.73    2.07
   9  -3  -6    9.43    3.45
  -9  -3   6    7.08    0.89
  -9  -3   6    6.20    2.27
   9  -3  -6    5.57    4.02
  -9  -3   6    7.67    1.84
  -9   3   6    6.60    1.10
   9   3  -6    8.63    1.76
   9   3  -6   11.17    3.02
  -9   3   6    9.46    1.90
  -9   3   6    5.06    4.05
   9   3  -6    6.25    2.24
  -7  -3   6   88.76    7.02
  -7  -3   6   95.87    7.65
   7  -3  -6   81.42   10.37
  -7  -3   6   81.74    7.97
   7  -3  -6   91.38    8.11
   7  -3  -6  101.71    9.64
  -7   3   6  101.98   10.22
   7   3  -6  117.40    7.63
   7   3  -6   94.59    9.12
  -7   3   6   99.73    7.23
  -7   3   6  110.25    7.28
   7   3  -6   82.54    8.19
  -7   3   6   95.50    7.16
  -5  -3   6   86.10    7.85
   5  -3  -6   74.90    8.88
   5  -3  -6   93.02   10.03
   5  -3  -6   72.14    9.99
  -5  -3   6   89.24    6.97
   5  -3  -6   98.60    8.10
   5  -3  -6  100.47    9.94
   5   3  -6   93.24    8.27
  -5   3   6   92.67    6.92
   5   3  -6  102.47    8.91
  -5   3   6  102.54    7.09
   5   3  -6  105.16    7.29
   3  -3  -6   33.21    3.88
   3  -3  -6   32.98    6.53
   3  -3  -6   53.89    7.50
   3  -3  -6   36.94    4.92
   3  -3  -6   47.18    6.85
  -3  -3   6   35.84    3.91
  -3   3   6   32.48    3.20
   3   3  -6   33.51    3.25
   3   3  -6   36.52    4.50
   3   3  -6   42.24    5.17
   3   3  -6   41.63    2.70
  -3   3   6   35.66    2.99
  -3   3   6   37.17    3.48
  -1  -3   6    0.26    1.06
   1  -3  -6    4.98    3.47
   1  -3  -6    4.85    2.81
   1  -3  -6    1.30    3.33
   1  -3  -6    0.70    1.64
   1  -3  -6    1.88    1.23
   1   3  -6    1.49    2.21
  -1   3   6    2.81    1.00
   1   3  -6    2.67    3.56
   1   3  -6    2.06    0.93
   1   3  -6    1.20    1.68
  -1   3   6    1.25    0.54
  -1   3   6    1.94    0.97
  -1   3   6    2.55    0.74
  -1  -3  -6  191.31   15.44
  -1  -3  -6  211.34   17.17
   1  -3   6  194.70   14.98
  -1  -3  -6  210.79   17.20
  -1  -3  -6  224.53   14.79
   1  -3   6  181.65   14.07
  -1  -3  -6  193.46   17.10
  -1  -3  -6  197.63   14.63
   1   3   6  220.90   14.39
   1   3   6  185.55   14.61
  -1   3  -6  162.59   15.86
   1   3   6  202.20   14.62
  -1   3  -6  217.59   18.32
  -1   3  -6  221.54   18.52
  -1   3  -6  206.38   15.49
   1   3   6  201.87   14.31
  -3  -3  -6  118.07   11.61
  -3  -3  -6  109.16    8.58
  -3  -3  -6  109.11   11.38
  -3  -3  -6  134.20   11.46
  -3  -3  -6  113.70    9.55
   3   3   6  110.52    8.44
  -3   3  -6  101.76   10.07
  -3   3  -6  134.61    9.83
  -3   3  -6   99.92   12.38
  -3   3  -6  127.56   12.86
   3   3   6  117.50    8.44
   3   3   6  119.15    8.79
  -5  -3  -6    7.41    2.02
   5  -3   6    7.18    1.92
  -5  -3  -6    2.45    3.78
  -5  -3  -6    7.50    4.12
  -5   3  -6    5.95    2.38
   5   3   6    7.53    0.94
   5   3   6    5.93    1.41
  -5   3  -6    0.43    5.10
  -5   3  -6    0.36    5.05
  -5   3  -6    5.70    2.69
   5   3   6    6.70    0.96
  -7  -3  -6    4.16    4.00
  -7  -3  -6    2.34    3.83
   7  -3   6   -0.11    1.42
  -7  -3  -6    2.99    1.93
  -7   3  -6    2.16    2.60
  -7   3  -6    8.44    5.39
  -7   3  -6    7.02    5.49
   7   3   6    2.20    0.66
   7   3   6    2.25    1.16
   7   3   6    2.66    0.67
  -7   3  -6    3.58    2.89
  -9  -3  -6   13.39    3.11
   9  -3   6   13.23    1.43
   9  -3   6   13.17    2.48
  -9  -3  -6    5.49    4.80
  -9   3  -6    6.83    3.06
   9   3   6   11.84    1.35
  -9   3  -6   11.10    2.87
   9   3   6   11.52    1.49
  -9   3  -6   11.35    3.26
  -9   3  -6   25.68    7.04
   9   3   6   12.51    1.99
  -9   3  -6   10.48    6.38
  11  -3   6   85.44    6.87
 -11  -3  -6   85.07    7.87
  11  -3   6   76.26    5.51
 -11  -3  -6   67.05   11.82
  11   3   6   72.92    5.44
  11   3   6   68.81    6.86
 -11   3  -6   67.98   11.72
 -11   3  -6   67.72    6.91
 -11   3  -6   54.25    7.15
 -11   3  -6   66.70    8.37
 -11   3  -6   65.71   12.32
 -13  -3  -6   62.77    7.84
  13  -3   6   62.06    4.86
 -13  -3  -6   56.29   11.34
  13  -3   6   57.96    6.47
 -13  -3  -6   58.07   12.29
 -13   3  -6   44.98   12.14
 -13   3  -6   49.53    8.09
  13   3   6   60.03    4.74
  13   3   6   74.51    6.39
 -13   3  -6   40.85   13.21
  15  -3   6    1.56    3.11
 -15  -3  -6   -3.59    9.30
  15  -3   6    8.03    1.67
 -15  -3  -6   28.00   11.41
 -15  -3  -6    1.56    4.02
 -15   3  -6   18.07   12.52
 -15   3  -6   -5.50   12.43
  15   3   6    6.95    1.37
  15   3   6    3.78    3.15
 -15   3  -6   15.09    5.34
  17  -3   6   43.91    9.54
  17  -3   6   36.93    4.22
 -17  -3  -6   36.76   14.41
 -17  -3  -6   37.88    7.62
 -17  -3  -6   27.80   13.82
  17   3   6   41.79    5.86
  17   3   6   38.56    3.82
 -17   3  -6   33.23   16.93
 -17   3  -6   29.86   15.61
 -17   3  -6   31.22    8.02
 -18  -4   6   16.85    8.32
  18  -4  -6   22.28    4.20
 -18  -4   6   26.94    9.40
  18  -4  -6   36.57    5.07
 -18  -4   6   28.48    6.64
 -18   4   6   20.34    3.12
  18   4  -6   21.73    3.78
 -18   4   6   15.64    7.49
 -16  -4   6   11.63    4.92
  16  -4  -6    9.49    4.51
  16  -4  -6    8.24    3.81
  16  -4  -6    9.12    2.97
  16   4  -6    8.58    2.31
 -16   4   6    5.28    1.63
 -16   4   6   -3.01    4.57
 -14  -4   6    3.01    3.24
  14  -4  -6   -1.40    3.97
  14  -4  -6    0.01    2.39
  14  -4  -6   -1.79    2.44
  14   4  -6    1.35    1.92
 -14   4   6   -0.37    3.59
  14   4  -6    1.55    2.75
 -14   4   6   -0.49    1.20
  12  -4  -6    0.64    2.28
  12  -4  -6    1.33    3.14
 -12  -4   6    3.97    2.35
  12  -4  -6    2.17    2.79
 -12   4   6    4.22    0.96
  12   4  -6    1.30    1.49
  12   4  -6    0.36    2.30
 -12   4   6    2.19    2.90
 -10  -4   6  123.65    9.99
 -10  -4   6  131.17    8.82
 -10  -4   6  109.26   10.15
  10  -4  -6  126.68   10.30
  10  -4  -6  130.91   11.43
  10  -4  -6  114.31   12.35
  10   4  -6  120.09    9.47
  10   4  -6  100.58   10.03
 -10   4   6  125.92    9.19
 -10   4   6  135.12   10.06
  10   4  -6  144.74   11.75
   8  -4  -6   31.07    6.72
   8  -4  -6   51.93    6.73
   8  -4  -6   44.46    4.92
  -8  -4   6   50.71    4.52
  -8  -4   6   40.84    5.02
  -8  -4   6   47.20    3.47
   8   4  -6   36.27    3.99
   8   4  -6   47.10    4.91
  -8   4   6   44.06    3.78
   8   4  -6   58.90    6.01
  -8   4   6   51.88    4.79
  -8   4   6   48.07    4.36
  -8   4   6   49.22    4.84
  -8   4   6   48.62    3.79
   6  -4  -6    2.47    2.70
  -6  -4   6    7.06    0.98
   6  -4  -6    6.55    3.51
   6  -4  -6    6.02    3.67
   6  -4  -6    7.50    3.74
  -6  -4   6    5.74    1.41
   6  -4  -6    3.62    1.93
  -6  -4   6    8.21    2.26
   6   4  -6    6.34    1.27
  -6   4   6    5.47    1.01
   6   4  -6    4.98    1.88
  -6   4   6    6.42    1.04
   6   4  -6    5.91    2.38
  -6   4   6    7.14    3.48
   4  -4  -6   13.62    4.37
   4  -4  -6   15.24    4.96
   4  -4  -6   13.69    3.59
   4  -4  -6   15.23    4.67
  -4  -4   6   15.70    3.04
   4   4  -6   11.31    3.00
  -4   4   6   16.85    1.66
   4   4  -6   19.30    3.18
  -4   4   6   18.88    1.86
   4   4  -6   20.99    1.95
   2  -4  -6    8.44    4.00
   2  -4  -6    8.88    2.64
  -2  -4   6    6.92    2.35
   2  -4  -6   11.13    1.83
   2  -4  -6   12.54    4.12
   2  -4  -6   14.17    4.09
   2   4  -6   12.26    1.46
   2   4  -6   11.71    2.58
   2   4  -6    7.53    2.76
  -2   4   6   10.39    1.29
  -2   4   6   10.77    1.59
  -2   4   6    8.59    1.39
  -2   4   6   13.05    1.56
   0  -4  -6   52.99    7.73
   0  -4  -6   64.84    8.13
   0  -4  -6   67.57    5.59
   0  -4  -6   70.17    8.17
   0  -4  -6   69.32    6.64
   0  -4  -6   82.74    5.50
   0   4  -6   59.83    6.21
   0   4   6   62.31    5.19
   0   4  -6   69.04    8.87
   0   4   6   67.37    5.51
   0   4   6   68.22    5.45
   0   4   6   75.04    5.32
   0   4  -6   71.60    6.89
  -2  -4  -6    6.79    2.08
  -2  -4  -6    5.63    3.48
  -2  -4  -6    6.52    1.22
  -2  -4  -6    4.90    3.46
  -2  -4  -6    5.59    1.46
   2  -4   6    5.27    1.82
  -2  -4  -6    7.40    3.61
   2   4   6    7.18    1.26
  -2   4  -6   10.70    2.80
   2   4   6    5.43    1.37
  -2   4  -6    7.40    0.99
   2   4   6    6.15    0.96
   2   4   6    4.83    0.87
  -2   4  -6    6.52    0.72
  -2   4  -6    7.63    0.78
  -2   4  -6    7.61    2.05
  -2   4  -6    5.34    5.05
  -2   4  -6    1.63    4.42
   4  -4   6    1.56    1.54
  -4  -4  -6   -4.35    3.08
  -4  -4  -6    1.00    1.43
  -4  -4  -6    0.93    3.41
   4   4   6    1.88    1.01
  -4   4  -6    0.13    4.50
  -4   4  -6    2.92    1.78
  -4   4  -6   -0.28    1.83
   4   4   6    0.36    0.62
   4   4   6    0.68    0.56
  -4   4  -6    3.87    5.02
  -6  -4  -6   10.34    4.12
   6  -4   6    5.63    1.99
  -6  -4  -6    7.41    4.02
  -6  -4  -6    2.36    1.74
   6   4   6    5.46    1.01
  -6   4  -6   14.42    5.94
   6   4   6    6.99    1.02
  -6   4  -6   18.05    6.70
  -6   4  -6    7.00    2.37
   6   4   6    6.49    1.36
   8  -4   6  167.72   13.15
  -8  -4  -6  171.70   16.30
  -8  -4  -6  154.06   16.18
   8   4   6  169.53   12.27
  -8   4  -6  174.74   17.96
  -8   4  -6  172.15   17.58
   8   4   6  170.48   12.43
   8   4   6  180.90   12.75
  -8   4  -6  157.02   12.76
  -8   4  -6  178.06   13.05
  10  -4   6    0.43    0.67
 -10  -4  -6    9.94    6.36
 -10  -4  -6   -1.57    2.12
  10  -4   6    0.38    1.80
 -10   4  -6   -7.93    6.08
  10   4   6    2.03    0.73
  10   4   6    1.76    1.51
 -10   4  -6    1.81    6.44
  10   4   6   -1.47    0.80
  12  -4   6   20.89    3.65
 -12  -4  -6   20.02    8.56
  12  -4   6   24.84    2.42
 -12  -4  -6   33.80    9.08
 -12  -4  -6   34.98    5.41
 -12   4  -6   27.85    9.44
 -12   4  -6   21.97    6.06
  12   4   6   22.07    2.76
  12   4   6   27.48    2.42
  12   4   6   22.37    4.05
  14  -4   6    3.58    3.04
 -14  -4  -6    6.64    4.01
 -14  -4  -6    8.63    8.98
 -14  -4  -6    6.29    8.28
  14  -4   6    4.32    1.20
 -14   4  -6   -4.26   11.44
  14   4   6    5.85    2.97
  14   4   6    4.25    1.26
 -14   4  -6    4.93    4.89
 -16  -4  -6   -4.06   10.73
 -16  -4  -6   -7.53   10.38
  16  -4   6    2.36    1.70
  16  -4   6    2.20    3.62
 -16  -4  -6   -5.77    4.26
 -16   4  -6    7.72    6.54
 -16   4  -6   -1.90   13.37
 -16   4  -6   20.33   13.63
  16   4   6    5.69    1.61
  18  -4   6    1.95    4.92
 -18  -4  -6    9.92   13.80
  18  -4   6    4.80    2.30
 -18  -4  -6   21.08   15.37
 -18  -4  -6    4.51    5.81
 -18   4  -6    2.57    7.37
  18   4   6   11.38    2.18
  18   4   6    5.41    2.13
 -18   4  -6   -2.53   16.87
 -19  -5   6   -0.16    9.54
 -19  -5   6   22.92   11.37
  19  -5  -6   13.17    3.57
 -19  -5   6   16.48    6.91
 -19   5   6    9.77    2.80
  19   5  -6   10.08    2.90
  19   5  -6   10.08    3.11
 -17  -5   6    0.64    4.61
  17  -5  -6    7.10    3.94
  17  -5  -6   -0.64    2.73
 -17   5   6   -0.23    1.67
  17   5  -6    3.06    1.94
  17   5  -6    3.24    2.39
  15  -5  -6   34.71    6.34
  15  -5  -6   30.46    4.66
 -15  -5   6   27.57    5.34
  15  -5  -6   30.95    4.72
 -15   5   6   31.41    3.32
 -15   5   6   27.79    5.77
  15   5  -6   29.79    3.78
  13  -5  -6    1.12    3.61
  13  -5  -6    1.25    2.87
  13  -5  -6   -0.31    2.54
 -13  -5   6   -0.74    2.78
  13   5  -6    4.33    2.75
  13   5  -6    0.59    1.61
 -13   5   6    1.60    3.56
 -13   5   6   -2.49    0.95
 -11  -5   6   19.97    3.56
  11  -5  -6   17.37    4.19
  11  -5  -6   18.67    3.78
  11  -5  -6   17.16    5.30
 -11  -5   6   18.58    3.33
  11   5  -6   19.44    2.54
  11   5  -6   16.05    3.43
 -11   5   6   22.11    3.71
 -11   5   6   18.34    2.84
   9  -5  -6    7.86    2.46
  -9  -5   6    9.84    0.89
   9  -5  -6   16.90    4.33
  -9  -5   6    9.55    2.70
  -9  -5   6    7.90    1.90
   9  -5  -6   11.00    5.22
  -9   5   6   11.30    1.54
   9   5  -6   15.64    2.93
   9   5  -6   11.12    3.39
  -9   5   6   10.50    1.44
   9   5  -6   10.15    1.60
   7  -5  -6   21.65    5.73
  -7  -5   6   24.40    1.84
   7  -5  -6   16.39    3.82
  -7  -5   6   20.41    2.78
  -7  -5   6   23.11    3.46
   7  -5  -6   17.22    3.26
   7  -5  -6   21.72    4.38
   7   5  -6   27.36    4.10
  -7   5   6   19.22    2.05
  -7   5   6   22.05    2.09
   7   5  -6   18.32    2.97
   7   5  -6   21.03    2.34
   5  -5  -6   15.71    5.12
   5  -5  -6    8.61    4.75
   5  -5  -6   15.67    3.95
  -5  -5   6   21.01    3.46
   5  -5  -6   25.13    5.47
  -5   5   6   20.47    1.95
   5   5  -6   20.22    3.67
  -5   5   6   22.14    4.03
   5   5  -6   23.99    2.11
   5   5  -6   13.69    2.94
  -5   5   6   19.90    2.02
   3  -5  -6   -1.91    3.18
   3  -5  -6   -0.45    2.08
  -3  -5   6    2.81    1.78
   3  -5  -6    3.31    3.25
   3  -5  -6    0.59    1.61
   3  -5  -6    1.22    3.45
   3   5  -6    0.50    1.38
   3   5  -6    0.84    0.60
  -3   5   6    0.65    0.65
  -3   5   6    1.50    0.72
   3   5  -6    1.56    1.67
  -3   5   6    0.16    0.81
   1  -5  -6   35.67    6.01
   1  -5  -6   22.69    4.82
  -1  -5   6   31.45    3.99
   1  -5  -6   21.01    3.73
   1  -5  -6   26.38    5.39
   1  -5  -6   24.78    3.03
  -1   5   6   34.00    2.79
   1   5  -6   25.52    3.56
  -1   5   6   27.22    2.57
   1   5  -6   31.62    4.03
  -1   5   6   29.18    2.48
  -1  -5  -6    0.96    2.94
  -1  -5  -6   -0.03    1.04
  -1  -5  -6    1.54    2.72
   1  -5   6   -0.77    0.28
   1  -5   6    0.31    0.21
   1  -5   6    0.36    1.50
  -1  -5  -6    2.13    1.82
  -1  -5  -6    1.28    2.81
  -1  -5  -6   -2.47    0.92
  -1   5  -6    0.87    1.55
   1   5   6   -0.58    0.80
  -1   5  -6    0.03    0.38
   1   5   6    1.18    0.73
   1   5   6    0.44    0.64
  -1   5  -6   -0.93    1.33
   1   5   6    0.01    0.55
  -1   5  -6    5.48    3.92
  -3  -5  -6   44.31    3.63
  -3  -5  -6   25.48    5.52
  -3  -5  -6   36.73    2.82
  -3  -5  -6   34.07    6.07
   3  -5   6   31.66    3.76
  -3   5  -6   28.97    3.71
   3   5   6   31.59    3.29
   3   5   6   33.87    2.87
  -3   5  -6   36.04    7.42
  -3   5  -6   32.49    4.04
   3   5   6   34.24    2.91
   3   5   6   33.00    2.89
   5  -5   6    3.71    1.95
  -5  -5  -6   -1.19    3.05
  -5  -5  -6    6.49    1.89
  -5  -5  -6   -3.55    3.04
  -5   5  -6    4.47    5.00
  -5   5  -6    5.61    2.15
   5   5   6    2.57    0.82
  -5   5  -6    2.53    1.08
  -5   5  -6    3.09    1.65
   5   5   6    2.56    1.25
  -5   5  -6    9.31    5.30
   5   5   6    3.55    0.84
  -7  -5  -6   21.06    3.20
   7  -5   6   17.82    2.93
  -7  -5  -6   16.97    5.41
  -7  -5  -6    6.19    4.70
  -7   5  -6   18.21    2.33
   7   5   6   19.22    1.82
  -7   5  -6   17.56    6.93
   7   5   6   18.75    1.95
  -7   5  -6   19.18    7.00
   7   5   6   14.55    1.92
   9  -5   6   -0.26    1.85
  -9  -5  -6   -1.75    2.02
   9  -5   6    0.17    0.56
  -9  -5  -6    6.97    5.25
  -9  -5  -6    0.39    5.09
  -9   5  -6    1.71    6.02
   9   5   6    0.00    1.32
  -9   5  -6    7.28    6.23
   9   5   6   -0.20    1.21
   9   5   6   -1.01    0.61
 -11  -5  -6   -1.07    6.46
 -11  -5  -6    8.88    3.53
  11  -5   6    6.69    1.03
 -11  -5  -6    4.01    6.62
  11  -5   6    4.77    2.49
 -11   5  -6    7.73    7.57
  11   5   6    4.12    1.73
  11   5   6    4.30    1.03
  11   5   6    4.37    1.26
 -11   5  -6    1.64    7.87
  13  -5   6    2.82    2.72
  13  -5   6   -0.34    0.90
 -13  -5  -6   -9.83    6.87
 -13  -5  -6  -11.34    7.04
  13   5   6    0.60    2.18
  13   5   6    0.09    1.22
 -13   5  -6    7.25    8.47
 -13   5  -6   -0.48   10.88
 -15  -5  -6   -9.39    9.11
  15  -5   6    0.38    1.39
 -15  -5  -6  -10.82    8.42
 -15  -5  -6   -0.51    4.20
  15  -5   6   -3.69    3.15
  15   5   6   -2.00    1.35
  15   5   6    1.41    1.40
 -15   5  -6  -21.69   11.31
 -15   5  -6   10.40   13.33
 -17  -5  -6    6.62    5.30
 -17  -5  -6   17.15   12.89
  17  -5   6    1.34    1.95
  17  -5   6   -1.99    4.36
 -17  -5  -6   -9.02   11.30
  17   5   6    2.83    1.89
 -17   5  -6    6.09   15.33
 -17   5  -6   14.79   16.09
  17   5   6    1.67    1.87
 -18  -6   6   14.91    8.73
 -18  -6   6   16.76    9.81
  18  -6  -6   11.00    3.74
 -18  -6   6   22.06    6.79
  18   6  -6   17.14    3.34
  18   6  -6   19.06    3.27
 -18   6   6   17.74    3.02
  16  -6  -6    3.19    4.52
 -16  -6   6    3.94    4.65
  16  -6  -6    2.28    3.25
  16  -6  -6    0.37    2.82
  16   6  -6    3.70    2.02
  16   6  -6    3.42    2.21
 -16   6   6    3.86    1.66
  14  -6  -6    7.60    2.87
  14  -6  -6    8.02    3.58
 -14  -6   6    1.52    3.52
 -14   6   6    5.62    1.51
  14   6  -6    3.26    1.59
  14   6  -6    2.86    1.93
 -12  -6   6   -1.98    2.33
  12  -6  -6    1.57    3.87
  12  -6  -6    2.89    2.62
  12  -6  -6   -1.74    3.28
 -12  -6   6    1.18    2.44
 -12   6   6   -0.16    1.10
  12   6  -6    1.56    2.55
  12   6  -6    0.72    1.61
  10  -6  -6   12.28    4.12
  10  -6  -6   11.12    5.43
  10  -6  -6   12.15    3.07
 -10  -6   6    9.96    2.93
 -10  -6   6    6.02    3.69
  10   6  -6    5.64    2.72
  10   6  -6   12.68    1.77
 -10   6   6    7.32    1.64
 -10   6   6   11.92    1.70
   8  -6  -6   -4.18    4.36
   8  -6  -6    3.04    2.08
  -8  -6   6    0.14    2.22
   8  -6  -6    5.53    3.89
  -8  -6   6    1.78    1.51
   8   6  -6    0.23    1.51
  -8   6   6    2.87    0.89
   8   6  -6    1.02    1.02
  -8   6   6    2.41    0.76
  -6  -6   6    4.00    1.49
   6  -6  -6    3.81    4.02
   6  -6  -6    6.91    4.43
  -6  -6   6    9.83    2.78
  -6  -6   6    6.06    1.00
   6  -6  -6    3.87    3.21
   6  -6  -6    4.55    4.30
   6  -6  -6    4.07    2.07
   6   6  -6    6.30    1.11
   6   6  -6    7.16    0.83
   6   6  -6    6.37    0.68
  -6   6   6    5.07    1.15
  -6   6   6    8.04    1.20
   6   6  -6    4.15    2.19
   6   6  -6    4.98    1.79
  -4  -6   6   15.26    2.94
   4  -6  -6   11.01    4.51
   4  -6  -6    3.82    3.73
   4  -6  -6   10.34    3.39
   4  -6  -6    1.42    3.76
   4   6  -6   11.26    1.28
   4   6  -6    6.85    1.16
  -4   6   6    9.25    1.39
  -4   6   6    8.21    1.23
   4   6  -6    9.08    2.03
   4   6  -6   11.17    2.64
  -4   6   6   10.48    1.64
   2  -6  -6   13.69    3.32
  -2  -6   6   13.44    2.80
   2  -6  -6   14.40    4.19
   2  -6  -6   13.39    2.23
   2  -6  -6   15.29    4.77
   2  -6  -6   10.24    4.01
   2   6  -6   16.46    3.05
  -2   6   6   10.81    1.70
   2   6  -6   16.49    1.57
   2   6  -6   17.93    2.71
  -2   6   6   16.27    1.76
  -2   6   6   16.51    1.89
   2   6  -6   16.62    1.56
   0  -6  -6   21.45    3.64
   0  -6  -6   21.35    5.46
   0  -6  -6   24.03    2.52
   0  -6  -6   20.11    4.52
   0  -6  -6   25.72    4.96
   0  -6   6   20.65    3.25
   0   6  -6   19.64    2.93
   0   6   6   24.70    2.14
   0   6   6   23.52    2.34
   0   6  -6   30.53    3.51
   0   6  -6   16.25    1.79
   0   6   6   22.07    2.26
  -2  -6  -6   -0.20    0.75
   2  -6   6    0.04    1.60
  -2  -6  -6   -0.23    2.95
  -2  -6  -6   -1.19    1.15
  -2  -6  -6   -3.58    3.10
  -2   6  -6   -0.80    1.18
  -2   6  -6   -0.16    1.31
  -2   6  -6    0.10    3.91
  -2   6  -6   -0.23    0.67
   2   6   6   -0.67    0.64
   2   6   6   -1.71    0.83
   2   6   6    0.64    0.65
  -4  -6  -6   25.74    2.82
  -4  -6  -6   26.89    5.75
   4  -6   6   28.97    3.68
  -4  -6  -6   20.13    5.41
  -4   6  -6   26.01    6.57
   4   6   6   20.61    2.16
   4   6   6   19.17    2.60
  -4   6  -6   23.72    2.83
   4   6   6   21.28    2.23
  -4   6  -6   21.84    2.75
  -6  -6  -6    0.61    3.38
  -6  -6  -6    3.42    1.88
   6  -6   6    0.53    1.81
  -6  -6  -6    4.10    3.49
  -6   6  -6    0.53    4.72
  -6   6  -6    1.16    1.10
   6   6   6    0.24    0.74
   6   6   6    0.53    0.69
   6   6   6    1.20    1.29
  -8  -6  -6    7.18    5.99
   8  -6   6    4.79    2.07
  -8  -6  -6   -3.17    4.86
  -8  -6  -6    7.41    2.21
  -8   6  -6   15.79    6.68
   8   6   6    4.56    1.60
  -8   6  -6   15.18    6.74
   8   6   6    6.32    1.08
   8   6   6    6.58    1.35
  10  -6   6   -0.31    2.14
  10  -6   6    4.92    0.86
 -10  -6  -6    0.04    5.56
 -10  -6  -6    6.34    5.67
 -10  -6  -6    3.64    2.80
  10   6   6    2.46    1.12
 -10   6  -6    2.21    6.81
  10   6   6    4.04    0.99
 -10   6  -6    3.92    6.95
  12  -6   6    0.65    0.88
 -12  -6  -6    0.99    3.65
 -12  -6  -6   -0.22    6.99
 -12  -6  -6  -13.93    5.73
  12  -6   6    6.88    2.57
 -12   6  -6  -17.34    9.38
  12   6   6    1.05    1.27
 -12   6  -6    9.30    8.22
  12   6   6    3.81    1.24
  14  -6   6    1.74    1.12
  14  -6   6   -6.35    3.13
 -14  -6  -6   -2.68    8.73
 -14  -6  -6   -6.79    3.60
 -14  -6  -6    6.59    8.65
  14   6   6   -0.60    1.37
  14   6   6    4.49    1.64
 -14   6  -6   13.47   12.01
 -16  -6  -6   30.17    6.90
 -16  -6  -6    5.25   11.59
  16  -6   6   19.11    2.65
 -16  -6  -6   34.57   13.34
  16  -6   6   17.67    4.93
  16   6   6   22.93    2.88
  16   6   6   19.18    3.00
 -16   6  -6   38.00   15.22
 -17  -7   6   -1.46    5.54
  17  -7  -6    2.80    3.25
  17   7  -6    3.14    2.15
 -17   7   6    0.49    1.72
  17   7  -6    0.64    2.31
  15  -7  -6   29.21    5.06
 -15  -7   6   22.41    5.74
  15  -7  -6   41.22    5.28
  15  -7  -6   40.50    6.66
  15   7  -6   36.54    4.16
 -15   7   6   33.04    3.70
  15   7  -6   33.27    4.28
 -13  -7   6   35.07    5.48
  13  -7  -6   44.33    6.21
  13  -7  -6   38.90    5.30
  13  -7  -6   48.23    7.36
 -13   7   6   38.73    3.86
  13   7  -6   40.30    4.22
  13   7  -6   41.58    4.31
  11  -7  -6   36.22    4.81
 -11  -7   6   29.86    4.55
 -11  -7   6   28.91    4.37
  11  -7  -6   23.84    5.60
  11  -7  -6   27.16    6.75
 -11   7   6   26.11    2.94
  11   7  -6   31.69    3.36
  -9  -7   6    1.03    1.83
  -9  -7   6    0.34    2.25
   9  -7  -6   -2.08    4.84
   9  -7  -6   -0.70    3.89
   9  -7  -6    1.70    2.42
   9   7  -6   -0.52    0.70
  -9   7   6   -0.26    1.00
   9   7  -6   -1.41    1.07
   9   7  -6    0.23    2.09
   9   7  -6   -0.24    0.89
  -9   7   6    0.17    1.03
   7  -7  -6   84.90   11.83
  -7  -7   6   92.00    8.77
   7  -7  -6  105.25    9.06
   7  -7  -6  101.46   10.53
  -7  -7   6   94.58    8.05
   7  -7  -6  107.17    8.77
   7  -7  -6   91.10    9.13
   7   7  -6   93.91    6.96
  -7   7   6   98.18    7.37
   7   7  -6   86.60    8.19
  -7   7   6   97.32    7.35
   7   7  -6  109.15    7.31
   7   7  -6   90.78    7.33
   5  -7  -6   26.54    6.41
   5  -7  -6   32.62    6.18
  -5  -7   6   43.06    5.03
   5  -7  -6   46.87    6.71
   5  -7  -6   37.87    5.64
   5   7  -6   31.52    2.72
   5   7  -6   26.23    3.75
  -5   7   6   35.59    2.98
  -5   7   6   32.18    2.97
   3  -7  -6   -1.52    2.00
   3  -7  -6    0.22    3.14
  -3  -7   6    2.53    1.97
   3  -7  -6    2.36    3.68
   3  -7  -6    3.38    3.81
   3   7  -6    0.86    0.62
   3   7  -6    0.29    0.55
  -3   7   6    0.84    0.85
   3   7  -6    2.40    1.47
  -3   7   6   -0.32    0.66
  -3   7   6    1.82    1.04
   1  -7  -6   29.11    3.49
   1  -7  -6   31.51    5.97
   1  -7  -6   42.97    4.97
   1  -7  -6   39.26    7.21
  -1  -7   6   33.96    4.53
   1  -7  -6   42.45    6.69
   1   7  -6   40.10    3.86
  -1   7   6   31.36    3.04
  -1   7   6   35.57    3.21
  -1   7   6   37.48    3.17
   1   7  -6   31.84    2.83
   1   7  -6   42.70    4.42
  -1  -7  -6   16.73    2.12
   1  -7   6   17.70    3.15
  -1  -7  -6   16.23    2.14
  -1  -7  -6   24.95    5.25
  -1  -7  -6   11.93    4.28
  -1   7  -6   21.49    3.01
   1   7   6   13.87    1.98
   1   7   6   14.92    1.98
   1   7   6   17.12    1.89
  -1   7  -6   22.07    2.65
  -1   7  -6   19.37    1.65
  -3  -7  -6  117.43   10.89
   3  -7   6  104.13    8.88
  -3  -7  -6   88.01   10.24
  -3  -7  -6  114.74    8.17
   3   7   6   96.11    7.75
   3   7   6   91.88    7.88
   3   7   6  105.19    7.80
  -3   7  -6  107.00    7.99
  -5  -7  -6   46.88    7.72
  -5  -7  -6   36.00    4.08
  -5  -7  -6   41.44    8.99
   5  -7   6   46.93    6.55
   5  -7   6   37.45    4.78
  -5   7  -6   57.46    9.49
   5   7   6   41.13    3.76
   5   7   6   38.66    3.39
   5   7   6   35.59    3.39
   7  -7   6    5.72    2.31
  -7  -7  -6    5.69    5.16
  -7  -7  -6   10.49    2.46
   7   7   6    8.72    1.38
  -7   7  -6   10.66    5.42
   7   7   6    9.89    1.79
   7   7   6    7.81    1.94
  -9  -7  -6   71.47   11.95
   9  -7   6   69.40    6.83
  -9  -7  -6   69.70    6.93
  -9  -7  -6   62.41   10.88
   9   7   6   74.77    5.67
  -9   7  -6   73.61   11.74
   9   7   6   72.12    6.12
   9   7   6   68.57    5.85
  11  -7   6   77.69    5.24
 -11  -7  -6   76.14    7.86
 -11  -7  -6   55.52   11.02
 -11  -7  -6   51.54   11.03
  11  -7   6   69.45    7.33
  11   7   6   82.58    6.55
  11   7   6   55.50    5.67
 -11   7  -6   60.73   11.66
  11   7   6   65.37    5.60
 -13  -7  -6    7.89    4.26
 -13  -7  -6   -2.10    7.46
  13  -7   6   -0.08    1.01
  13  -7   6   -0.74    2.98
 -13  -7  -6    3.74    7.73
  13   7   6    2.75    1.43
  13   7   6    0.58    1.42
 -13   7  -6  -11.11    9.00
  13   7   6   -0.37    2.64
 -15  -7  -6   25.67   11.29
 -15  -7  -6    6.52   10.09
 -15  -7  -6    0.73    4.68
  15  -7   6   -0.98    4.01
 -15   7  -6    7.12   12.90
  15   7   6    2.17    1.77
  15   7   6    2.79    1.71
  17  -7   6    3.00    5.34
 -17  -7  -6  -10.90   12.56
 -17  -7  -6    5.17    6.05
 -17  -7  -6  -18.21   12.30
  17   7   6    2.70    2.01
  17   7   6   -2.73    1.95
 -16  -8   6   79.38   11.17
  16  -8  -6  104.33    9.26
 -16   8   6   96.24    7.65
  16   8  -6   80.00    7.64
  16   8  -6   82.12    7.83
  16   8  -6  102.99    8.28
 -14  -8   6    2.22    3.66
  14  -8  -6    3.05    3.18
  14  -8  -6    0.01    3.73
  14   8  -6    4.54    2.02
  14   8  -6    5.45    1.98
  14   8  -6    4.48    1.67
 -14   8   6    2.51    1.61
  12  -8  -6   57.17    6.90
  12  -8  -6   69.72    8.40
 -12  -8   6   60.30    6.91
 -12  -8   6   44.33    6.80
  12  -8  -6   69.45   10.01
 -12   8   6   67.22    5.10
  12   8  -6   54.95    5.24
  12   8  -6   48.17    5.19
  12   8  -6   58.91    4.74
 -10  -8   6  110.38   10.05
  10  -8  -6  112.58   10.34
  10  -8  -6  129.12   12.22
  10  -8  -6  122.36   13.71
 -10  -8   6  110.02   10.09
 -10   8   6  113.28    8.75
  10   8  -6  109.36    8.31
  10   8  -6  115.00    8.88
 -10   8   6  111.35    8.71
  10   8  -6  115.59    8.67
   8  -8  -6   26.72    7.25
   8  -8  -6   35.54    5.13
   8  -8  -6   34.92    6.52
  -8  -8   6   40.35    5.15
  -8  -8   6   39.06    4.90
  -8   8   6   34.93    3.56
   8   8  -6   38.84    3.01
  -8   8   6   41.20    3.56
   8   8  -6   35.06    3.80
   8   8  -6   40.01    3.38
   6  -8  -6    7.92    5.04
   6  -8  -6    5.73    3.58
  -6  -8   6    0.55    0.79
   6  -8  -6    7.36    4.46
  -6  -8   6   -3.88    2.22
  -6  -8   6    1.91    1.45
   6  -8  -6   -0.90    1.96
   6  -8  -6    3.82    4.60
  -6   8   6    3.72    1.09
   6   8  -6    3.63    1.70
   6   8  -6    1.37    1.18
   6   8  -6    0.96    0.80
  -6   8   6    1.48    0.89
  -4  -8   6   -0.88    2.28
   4  -8  -6    2.49    4.00
   4  -8  -6    4.82    3.98
   4  -8  -6    2.44    3.96
   4  -8  -6    0.92    2.50
  -4   8   6    0.99    1.14
  -4   8   6    3.52    0.94
   4   8  -6    0.71    0.74
  -4   8   6    0.32    0.90
   4   8  -6    1.74    1.34
   4   8  -6    0.96    0.67
   2  -8  -6  102.67   10.59
   2  -8  -6  121.17   10.94
  -2  -8   6  113.50    9.28
   2  -8  -6  102.66   11.53
   2  -8  -6  103.18    8.31
   2  -8  -6  104.32    9.63
   2   8  -6   95.71    8.40
  -2   8   6  112.97    8.11
  -2   8   6   94.93    7.86
  -2   8   6  104.82    7.91
   0  -8   6  286.52   22.83
   0  -8  -6  311.29   24.37
   0  -8  -6  299.49   21.78
   0  -8  -6  331.09   23.33
   0  -8  -6  361.38   26.00
   0  -8  -6  299.39   24.14
   0   8   6  305.37   21.83
   0   8   6  285.69   21.81
   0   8   6  276.28   21.86
   0   8  -6  307.59   22.19
  -2  -8  -6   19.42    2.54
  -2  -8  -6    7.96    4.16
  -2  -8  -6   16.85    4.95
   2  -8   6   13.72    3.32
   2   8   6   18.23    2.07
   2   8   6   16.13    2.12
  -2   8  -6   17.69    1.71
   2   8   6   17.92    2.07
  -2   8  -6   21.20    2.66
  -4  -8  -6   67.06    8.89
   4  -8   6   80.00    7.41
  -4  -8  -6   84.07    6.62
   4   8   6   71.73    5.97
   4   8   6   86.07    6.22
   4   8   6   67.93    5.95
  -6  -8  -6  144.51   12.38
  -6  -8  -6  142.58   15.36
   6  -8   6  163.93   12.94
   6   8   6  169.31   11.77
   6   8   6  164.03   11.92
   6   8   6  156.84   11.84
  -8  -8  -6   64.46   10.80
   8  -8   6   79.69    7.25
  -8  -8  -6   50.95   10.27
  -8  -8  -6   65.93    6.67
   8   8   6   66.60    5.73
   8   8   6   71.96    5.69
   8   8   6   73.71    5.95
 -10  -8  -6   11.02    6.35
 -10  -8  -6    6.69    3.62
  10  -8   6    3.56    2.60
 -10  -8  -6    8.13    6.63
  10   8   6    7.93    1.49
  10   8   6    5.48    1.65
  10   8   6    9.79    2.23
  12  -8   6   22.15    4.37
 -12  -8  -6   21.21    4.74
 -12  -8  -6    9.61    8.15
 -12  -8  -6   11.50    8.82
  12   8   6   24.60    3.32
  12   8   6   23.43    2.85
  12   8   6   19.98    2.75
  14  -8   6   23.78    5.31
 -14  -8  -6   35.93   11.95
 -14  -8  -6   44.78   12.66
 -14  -8  -6   24.45    6.09
  14   8   6   29.90    3.63
  14   8   6   41.79    4.76
  14   8   6   29.44    3.66
 -16  -8  -6   42.81   13.48
 -16  -8  -6   38.15   13.89
  16  -8   6   54.54    7.70
 -16  -8  -6   33.69    7.84
  16   8   6   57.38    5.09
  16   8   6   43.82    5.26
  15  -9  -6   30.90    5.36
 -15  -9   6   25.18    5.86
  15   9  -6   20.34    3.45
 -15   9   6   35.58    3.85
  15   9  -6   30.90    3.97
 -13  -9   6  140.57   12.77
  13  -9  -6  146.39   12.88
  13  -9  -6  126.32   12.10
  13  -9  -6  143.38   20.14
 -13   9   6  147.65   10.68
  13   9  -6  140.65   10.82
  13   9  -6  142.59   10.26
  13   9  -6  119.72   10.73
 -11  -9   6   80.75    8.55
 -11  -9   6   81.44    8.58
  11  -9  -6   84.31   10.67
  11  -9  -6   86.31    8.74
  11  -9  -6   99.27   13.14
  11   9  -6   80.03    6.43
  11   9  -6   90.26    7.00
 -11   9   6   83.55    6.81
  -9  -9   6    3.40    2.31
   9  -9  -6    7.76    3.13
   9  -9  -6   -2.20    5.99
  -9  -9   6    5.61    3.05
   9  -9  -6    2.40    4.88
  -9   9   6    3.28    1.32
  -9   9   6    2.88    1.28
   9   9  -6    2.11    1.32
   9   9  -6    4.48    1.02
   7  -9  -6  158.55   14.05
   7  -9  -6  126.71   15.63
   7  -9  -6  141.23   12.54
  -7  -9   6  132.74   11.78
   7  -9  -6  150.54   13.13
  -7  -9   6  151.47   12.46
   7   9  -6  156.12   10.63
   7   9  -6  156.66   10.88
  -7   9   6  145.19   10.88
  -7   9   6  125.58   10.72
   5  -9  -6  281.44   22.21
   5  -9  -6  282.55   22.38
   5  -9  -6  275.02   24.18
  -5  -9   6  296.44   21.34
   5  -9  -6  235.72   22.26
  -5   9   6  278.97   20.38
   5   9  -6  275.05   19.87
  -5   9   6  283.31   20.02
  -5   9   6  277.65   20.03
  -3  -9   6   70.62    6.96
   3  -9  -6   56.55    8.57
   3  -9  -6   68.61    8.87
   3  -9  -6   60.29    9.45
   3  -9  -6   71.11    7.49
  -3   9   6   69.52    5.64
  -3   9   6   72.09    5.36
  -3   9   6   67.44    5.28
   3   9  -6   56.56    5.09
  -1  -9   6   17.31    3.60
   1  -9  -6   18.27    2.51
   1  -9  -6   21.30    5.28
   1  -9  -6   22.88    5.37
   1  -9  -6   21.50    2.18
   1  -9  -6   15.56    3.66
  -1   9   6   17.44    2.26
   1   9  -6   17.94    1.87
  -1   9   6   12.81    1.86
  -1  -9  -6  119.35    8.66
   1  -9   6  114.36   10.29
  -1  -9  -6  115.64   11.93
  -1  -9  -6  113.58   11.73
   1   9   6  127.37    9.03
   1   9   6  111.14    8.92
   1   9   6  125.72    9.11
  -1   9  -6  117.14    8.66
  -3  -9  -6  171.24   17.01
  -3  -9  -6  191.29   14.10
  -3  -9  -6  150.76   16.22
   3  -9   6  199.79   15.01
  -3   9  -6  216.46   13.41
   3   9   6  182.66   13.72
   3   9   6  170.57   14.58
   3   9   6  181.77   13.86
   5  -9   6  111.09    9.86
  -5  -9  -6  121.77    9.23
  -5  -9  -6  109.37   12.91
  -5  -9  -6  106.01   12.67
   5   9   6  111.32    8.60
   5   9   6  104.85    8.58
  -7  -9  -6   -1.06    2.09
   7  -9   6    1.29    2.46
  -7  -9  -6    5.49    6.25
  -7  -9  -6   -3.03    5.48
   7   9   6   -1.36    1.30
   7   9   6   -1.72    1.03
   7   9   6    0.14    1.23
  -9  -9  -6  107.50   13.99
   9  -9   6  120.89   10.33
  -9  -9  -6  115.48   10.38
  -9  -9  -6   98.25   13.87
   9   9   6  105.39    8.72
   9   9   6  110.06    8.74
   9   9   6  113.48    8.66
  11  -9   6  106.11   10.21
 -11  -9  -6  102.44   10.59
 -11  -9  -6   93.21   14.76
 -11  -9  -6  102.37   15.64
  11   9   6  111.78    8.79
  11   9   6  101.39    8.58
  11   9   6  129.80    8.93
 -13  -9  -6   85.84   15.53
  13  -9   6   94.89    9.69
 -13  -9  -6   68.24   15.03
 -13  -9  -6   83.26    9.94
  13   9   6   73.29    6.76
  13   9   6   86.12    7.12
 -15  -9  -6    7.62   11.60
  15  -9   6   -0.84    4.76
 -15  -9  -6   -2.11    4.90
 -15  -9  -6   -3.07   10.49
  15   9   6    1.27    1.95
  15   9   6    1.73    2.20
  14 -10  -6    4.73    4.04
 -14 -10   6    8.20    4.47
 -14  10   6    5.36    2.07
  14  10  -6    9.70    2.39
  14  10  -6   10.56    2.74
  12 -10  -6   44.28    7.30
  12 -10  -6   37.09    5.90
 -12 -10   6   32.17    5.86
 -12 -10   6   36.88    5.70
  12  10  -6   41.78    4.56
 -12  10   6   43.63    4.21
  12  10  -6   43.98    4.42
 -10 -10   6  132.74   11.26
  10 -10  -6  153.81   13.95
  10 -10  -6  119.01   11.19
 -10 -10   6  120.44   11.00
  10  10  -6  105.33    9.74
 -10  10   6  119.58    9.42
  10  10  -6  131.40    9.59
 -10  10   6  119.82    9.47
   8 -10  -6   78.34    8.65
   8 -10  -6   77.84   19.91
  -8 -10   6   79.91    7.69
   8 -10  -6   74.56   10.50
  -8 -10   6   78.71    8.39
   8  10  -6   83.49    6.38
  -8  10   6   77.37    6.24
   8  10  -6   62.02    6.02
  -8  10   6   88.71    6.43
   6 -10  -6   72.17    9.30
   6 -10  -6   77.93   10.76
  -6 -10   6   89.10    8.21
   6 -10  -6   57.78   13.30
   6 -10  -6   82.40   10.48
   6 -10  -6   73.82    8.14
  -6 -10   6   79.28    7.37
  -6  10   6   68.76    6.04
   6  10  -6   65.68    6.07
  -6  10   6   93.54    6.34
   6  10  -6   77.96    5.89
   4 -10  -6   82.87   10.05
  -4 -10   6   72.73    7.97
   4 -10  -6   77.10    9.80
   4 -10  -6   60.94    8.05
   4 -10  -6   71.48   11.73
   4  10  -6   67.14    5.75
  -4  10   6   79.84    6.50
  -4  10   6   81.11    6.03
  -4  10   6   73.65    6.03
   2 -10  -6  325.32   26.66
   2 -10  -6  311.06   24.33
  -2 -10   6  292.69   22.84
   2 -10  -6  253.88   23.98
   2 -10  -6  279.08   23.19
   2  10  -6  326.41   21.45
  -2  10   6  307.83   21.71
  -2  10   6  295.10   21.85
   0 -10  -6  117.64    8.89
   0 -10  -6  120.69   13.81
   0 -10  -6  122.05   12.04
   0 -10  -6  145.76   15.00
   0 -10  -6  110.47   11.97
   0 -10   6  120.48   10.43
   0 -10  -6  108.10    9.03
   0  10   6  108.56    9.18
   0  10  -6  134.67    8.83
   0  10   6  125.82    9.09
   0  10   6  102.03    8.83
  -2 -10  -6    5.07    2.01
  -2 -10  -6    8.77    4.45
  -2 -10  -6   13.42    5.44
   2 -10   6   15.83    3.56
   2  10   6    9.70    1.57
  -2  10  -6   11.21    1.48
   2  10   6    4.75    1.56
   2  10   6   15.39    2.10
  -4 -10  -6   76.67   11.80
  -4 -10  -6   93.20   11.63
   4 -10   6   94.46    8.67
  -4 -10  -6   82.16    7.59
  -4  10  -6   89.91    6.66
   4  10   6   86.88    7.11
   4  10   6   91.31    7.13
   4  10   6   89.84    6.96
   6 -10   6  159.69   12.66
  -6 -10  -6  151.86   11.89
  -6 -10  -6  133.28   15.62
  -6 -10  -6  119.54   15.56
   6  10   6  149.62   10.98
   6  10   6  151.01   11.17
   6  10   6  139.61   11.09
  -8 -10  -6   45.88    9.79
  -8 -10  -6   51.43    6.64
  -8 -10  -6   39.84   10.22
   8 -10   6   56.07    6.86
   8  10   6   50.90    4.65
   8  10   6   52.12    4.74
   8  10   6   47.37    4.69
  10 -10   6   12.65    4.10
 -10 -10  -6   19.63    4.89
 -10 -10  -6   26.75    8.86
 -10 -10  -6   22.69    8.34
  10  10   6   23.98    2.85
  10  10   6   17.34    2.65
  10  10   6   17.12    2.49
 -12 -10  -6    4.28    8.81
  12 -10   6   -0.64    3.54
 -12 -10  -6   -5.71    3.70
 -12 -10  -6   -1.24    8.55
  12  10   6   -1.72    1.80
  12  10   6    3.67    1.78
 -14 -10  -6  131.20   20.65
 -14 -10  -6  152.16   14.12
 -14 -10  -6  121.14   20.05
  14 -10   6  126.52   13.48
  14  10   6  138.11   10.85
  14  10   6  138.47   11.09
 -15 -11   6   34.71    6.83
  13 -11  -6   87.67   16.37
 -13 -11   6  106.03   10.83
 -13  11   6  106.92    8.08
  13  11  -6   86.71    8.21
  13  11  -6   94.50    8.29
 -11 -11   6   56.10    7.64
  11 -11  -6   51.65   12.22
 -11 -11   6   65.75    8.00
  11 -11  -6   83.58   11.18
  11 -11  -6   58.44    7.67
  11  11  -6   58.59    5.61
  11  11  -6   48.06    5.34
 -11  11   6   60.97    5.24
  -9 -11   6    1.32    3.59
   9 -11  -6   -2.59    3.27
   9 -11  -6   -0.19    5.58
  -9 -11   6    5.37    2.74
   9 -11  -6   10.35    9.53
   9  11  -6    4.80    1.70
  -9  11   6    3.09    1.51
   9  11  -6    3.44    1.58
  -9  11   6    1.87    1.36
  -7 -11   6  103.83    8.98
  -7 -11   6   92.47    9.64
   7 -11  -6   75.97   13.57
   7 -11  -6   86.56   11.41
   7 -11  -6   92.60    9.64
   7 -11  -6  102.16   11.39
   7  11  -6   87.03    7.45
  -7  11   6   94.36    7.41
  -7  11   6   98.56    7.56
   5 -11  -6  271.08   22.76
  -5 -11   6  275.16   21.41
   5 -11  -6  230.28   24.81
   5 -11  -6  242.64   23.09
   5 -11  -6  316.25   23.37
  -5  11   6  317.33   19.96
  -5  11   6  291.95   19.99
  -5  11   6  278.90   20.30
   5  11  -6  228.85   19.71
   3 -11  -6   51.23    8.12
   3 -11  -6   62.42   10.97
   3 -11  -6   55.32    8.55
  -3 -11   6   59.30    7.21
   3 -11  -6   63.67    8.92
   3  11  -6   54.73    4.46
  -3  11   6   55.61    4.68
  -3  11   6   48.91    4.68
  -3  11   6   45.93    5.01
  -1 -11   6   18.88    4.03
   1 -11  -6   20.96    5.57
   1 -11  -6   19.75    5.16
   1 -11  -6   14.00    2.41
   1 -11  -6   30.67    8.39
  -1  11   6   13.57    2.38
  -1  11   6   14.60    2.16
  -1  11   6   19.75    2.36
   1 -11   6   85.54    8.44
  -1 -11  -6   83.32   10.52
  -1 -11  -6   81.02   11.20
  -1 -11  -6   73.24    6.71
  -1  11  -6   72.12    6.00
   1  11   6   80.94    6.60
   1  11   6   79.51    6.40
   3 -11   6  161.53   13.21
  -3 -11  -6  137.59   15.76
  -3 -11  -6  151.84   15.97
  -3 -11  -6  139.99   11.86
   3  11   6  144.86   11.49
   3  11   6  143.26   11.24
  -3  11  -6  164.27   11.12
   3  11   6  161.57   11.64
  -5 -11  -6  121.71   14.20
   5 -11   6  102.24   10.22
  -5 -11  -6  103.66    9.31
  -5 -11  -6  130.52   14.58
   5  11   6  108.49    8.60
   5  11   6   99.59    8.57
   5  11   6  114.72    8.61
  -7 -11  -6    4.27    3.46
  -7 -11  -6    2.29    6.60
  -7 -11  -6    1.75    6.94
   7 -11   6    4.99    3.25
   7  11   6    0.11    1.35
   7  11   6   -0.25    1.43
   7  11   6    0.76    1.49
   9 -11   6   59.15    8.16
  -9 -11  -6   69.68   13.56
  -9 -11  -6   64.94   12.18
  -9 -11  -6   70.19    8.30
   9  11   6   75.14    6.14
   9  11   6   67.94    6.13
   9  11   6   66.81    5.92
 -11 -11  -6  120.25   17.10
 -11 -11  -6  147.20   12.59
  11 -11   6  138.87   12.71
 -11 -11  -6   91.57   16.10
  11  11   6  126.80   10.33
  11  11   6  127.37   10.19
 -13 -11  -6   66.87    8.64
 -13 -11  -6   61.43   14.46
  13 -11   6   53.60    7.94
 -13 -11  -6   43.59   13.29
  13  11   6   53.17    5.88
  13  11   6   53.02    5.60
 -12 -12   6   76.23    8.65
  12 -12  -6   71.18    9.09
  12 -12  -6   87.69   13.96
 -12 -12   6   75.45    9.49
 -12  12   6   81.00    6.87
  12  12  -6   89.51    7.19
  12  12  -6   69.39    7.16
 -10 -12   6   65.82    7.70
 -10 -12   6   53.64    7.26
  10 -12  -6   57.89    7.50
  10 -12  -6   47.80   12.39
 -10  12   6   56.47    5.27
 -10  12   6   57.11    5.34
  10  12  -6   61.81    5.58
  -8 -12   6   43.39    6.01
  -8 -12   6   47.96    6.33
   8 -12  -6   30.80    5.97
   8 -12  -6   38.76    8.82
   8 -12  -6   25.90   10.89
   8  12  -6   46.78    4.23
  -8  12   6   31.59    3.97
   6 -12  -6    3.34    3.73
   6 -12  -6   11.05    7.04
  -6 -12   6    4.87    3.95
   6 -12  -6   -3.09    5.55
  -6 -12   6    3.83    2.87
   6 -12  -6    4.31    7.81
  -6  12   6    3.92    1.60
   6  12  -6    3.26    1.60
  -6  12   6    4.03    1.52
  -4 -12   6    3.65    4.23
   4 -12  -6   18.65    5.37
   4 -12  -6   26.18    7.40
   4 -12  -6   13.65    6.49
   4 -12  -6   15.67    7.93
  -4  12   6   12.43    2.03
  -4  12   6   11.35    2.11
   4  12  -6   18.41    2.33
  -4  12   6   10.22    2.42
  -2 -12   6  111.34   10.33
   2 -12  -6   87.68   10.77
   2 -12  -6  113.82   14.95
   2 -12  -6  119.00   14.60
   2 -12  -6  107.90   12.40
  -2  12   6  111.11    8.25
  -2  12   6  103.87    8.48
  -2  12   6  103.75    8.05
   2  12  -6   89.31    8.04
   0 -12  -6  154.56   13.29
   0 -12   6  138.46   12.53
   0 -12  -6  112.56   16.52
   0 -12  -6  116.15   14.77
   0  12   6  142.78   10.91
   0  12   6  137.51   10.66
   0  12  -6  159.76   10.44
   0  12   6  124.73   10.46
  -2 -12  -6   26.92    7.78
   2 -12   6   25.30    5.00
  -2 -12  -6   22.42    8.14
  -2 -12  -6   25.65    3.74
  -2  12  -6   25.40    2.74
   2  12   6   21.81    3.11
   2  12   6   20.10    2.91
   2  12   6   23.14    2.77
  -4 -12  -6   32.53    8.69
   4 -12   6   36.70    5.72
  -4 -12  -6   26.25    8.03
  -4 -12  -6   40.18    5.18
   4  12   6   37.81    4.17
  -4  12  -6   42.18    3.87
   4  12   6   36.51    4.09
   4  12   6   43.19    4.00
  -6 -12  -6  172.98   18.09
   6 -12   6  150.63   13.85
  -6 -12  -6  164.71   13.37
  -6 -12  -6  157.94   18.07
   6  12   6  154.79   12.12
   6  12   6  152.67   12.07
  -8 -12  -6   88.55   14.10
   8 -12   6   64.69    8.00
  -8 -12  -6   73.85    8.43
  -8 -12  -6   61.04   12.39
   8  12   6   69.13    6.23
   8  12   6   60.06    5.79
   8  12   6   70.11    6.17
  10 -12   6   -2.74    4.32
 -10 -12  -6   12.22   10.96
 -10 -12  -6   13.66    9.70
 -10 -12  -6    3.75    4.76
  10  12   6    4.61    2.07
  10  12   6    5.09    2.20
 -12 -12  -6    1.70    5.65
 -12 -12  -6    0.81   10.21
  12 -12   6   11.39    5.24
 -12 -12  -6   12.07   10.69
  12  12   6    9.78    2.60
  12  12   6    9.48    2.49
 -11 -13   6   30.34    8.39
  11 -13  -6   26.66   11.74
  11 -13  -6   27.49    5.61
 -11 -13   6   15.83    5.10
 -11  13   6   23.42    3.28
  11  13  -6   32.82    3.86
   9 -13  -6    6.98   11.07
   9 -13  -6    2.52    8.54
   9 -13  -6    0.49    3.84
  -9 -13   6    2.46    4.67
  -9 -13   6   -2.19    3.54
  -9  13   6    1.14    1.84
  -9  13   6    0.06    1.62
   9  13  -6    1.77    1.78
  -7 -13   6   67.42    7.78
   7 -13  -6   36.35   12.28
   7 -13  -6   59.31   10.25
  -7 -13   6   60.83    8.13
   7 -13  -6   73.75    8.98
  -7  13   6   74.44    6.06
   7  13  -6   70.52    5.95
  -7  13   6   63.42    5.78
   5 -13  -6   25.99    8.03
  -5 -13   6   17.13    5.16
  -5 -13   6   17.69    3.97
   5 -13  -6   22.67    7.09
   5 -13  -6   20.89    9.01
   5 -13  -6   21.96    8.30
  -5  13   6   19.02    3.23
  -5  13   6   19.89    2.77
  -5  13   6   22.47    2.77
   5  13  -6   23.00    2.90
  -3 -13   6   25.38    5.53
   3 -13  -6   19.59    5.95
   3 -13  -6   10.19    8.31
   3 -13  -6   13.13    8.73
   3 -13  -6   26.20    7.95
  -3  13   6   13.76    2.56
   3  13  -6   20.37    2.68
  -3  13   6   14.74    2.90
  -3  13   6   24.74    2.86
   1 -13  -6   -8.07    7.16
  -1 -13   6   -1.66    4.00
   1 -13  -6   -0.60    4.35
   1 -13  -6    0.71    6.16
   1 -13  -6    6.64    7.62
  -1  13   6   -1.09    1.36
  -1  13   6   -0.81    1.46
  -1  13   6   -1.90    1.60
   1 -13   6   23.62    5.35
  -1 -13  -6   29.09    8.90
  -1 -13  -6   27.15    4.00
  -1 -13  -6   34.62    9.18
   1  13   6   28.05    3.40
  -1  13  -6   36.67    3.51
   1  13   6   30.60    3.58
   1  13   6   25.29    3.57
  -3 -13  -6   47.50    9.92
  -3 -13  -6   37.27    5.41
   3 -13   6   31.90    6.36
  -3 -13  -6   50.17   10.52
  -3  13  -6   48.18    4.34
   3  13   6   42.09    4.22
   3  13   6   46.43    4.55
   3  13   6   39.38    4.49
  -5 -13  -6   60.73   11.65
  -5 -13  -6   59.72   11.08
   5 -13   6   46.67    6.93
  -5 -13  -6   62.91    7.01
   5  13   6   37.81    4.83
   5  13   6   49.19    4.75
   5  13   6   45.95    4.90
   7 -13   6   -7.46    4.19
  -7 -13  -6    9.09    8.66
  -7 -13  -6   16.29    8.65
  -7 -13  -6    5.85    4.12
   7  13   6    0.79    2.07
   7  13   6    0.09    1.90
   7  13   6    2.64    2.00
  -9 -13  -6   39.65   12.95
   9 -13   6   43.79    7.02
  -9 -13  -6   54.53    7.59
  -9 -13  -6   41.09   11.69
   9  13   6   42.63    4.96
   9  13   6   42.55    5.10
 -11 -13  -6   78.96   10.96
 -11 -13  -6   80.66   16.87
 -11 -13  -6   81.04   15.39
  11 -13   6   79.32   10.32
  11  13   6   80.84    7.67
  11  13   6   87.03    7.51
  10 -14  -6   23.65    5.66
 -10 -14   6   10.59    5.13
  10 -14  -6   23.65   13.08
  10  14  -6   13.10    2.89
 -10  14   6   11.35    2.68
 -10  14   6   11.60    2.59
   8 -14  -6   19.70    5.26
   8 -14  -6   10.77   12.05
  -8 -14   6   17.85    4.66
  -8 -14   6   23.32    6.16
   8 -14  -6   40.45   10.01
  -8  14   6   21.36    3.07
   8  14  -6   21.96    3.21
  -8  14   6   21.02    3.02
   6 -14  -6    5.88    4.46
   6 -14  -6    3.68   10.00
  -6 -14   6    8.99    5.55
   6 -14  -6    3.21    7.04
  -6 -14   6   -1.56    3.25
   6  14  -6    5.99    2.13
  -6  14   6    1.79    1.66
  -6  14   6   -3.12    1.68
   4 -14  -6   24.39   10.39
   4 -14  -6    6.01    8.88
  -4 -14   6   13.25    5.48
   4 -14  -6   -2.69    5.63
  -4 -14   6    5.97    3.69
   4 -14  -6    5.64    8.49
  -4  14   6    6.31    2.82
  -4  14   6    6.23    2.12
   4  14  -6    9.14    2.26
  -4  14   6    6.38    1.91
   2 -14  -6    7.39    9.27
   2 -14  -6    5.46    5.46
  -2 -14   6   13.18    5.37
   2 -14  -6    9.18    8.37
   2 -14  -6    3.48    8.58
  -2  14   6   15.51    2.25
   2  14  -6   10.39    2.44
  -2  14   6   10.42    2.33
  -2  14   6   13.08    2.75
   0 -14  -6   48.44    7.72
   0 -14  -6   37.56   10.64
   0 -14  -6   40.53   10.46
   0 -14  -6   43.86   10.95
   0 -14   6   43.92    7.24
   0  14   6   43.05    4.98
   0  14   6   46.07    4.62
   0  14   6   42.18    4.26
   0  14  -6   38.93    4.84
  -2 -14  -6   -4.35    7.61
   2 -14   6   -0.37    4.59
  -2 -14  -6    1.26    7.49
   2  14   6   -0.77    1.60
  -2  14  -6    2.14    2.08
   2  14   6    0.09    1.74
   2  14   6   -1.11    1.84
  -4 -14  -6   23.18    8.87
   4 -14   6    7.49    5.05
  -4 -14  -6    1.14    4.31
  -4 -14  -6   20.52    9.30
   4  14   6   11.75    2.24
   4  14   6    7.69    2.50
   4  14   6    8.01    2.34
   6 -14   6    6.13    5.79
  -6 -14  -6    1.64    8.60
  -6 -14  -6    2.65    4.69
  -6 -14  -6    5.11    8.95
   6  14   6    1.70    2.00
   6  14   6    2.32    2.12
   6  14   6   -3.09    1.93
  -8 -14  -6   28.95    6.50
  -8 -14  -6   11.67   11.27
   8 -14   6   29.03    6.79
  -8 -14  -6   33.59   11.23
   8  14   6   23.05    3.66
   8  14   6   34.07    3.97
   7 -15  -6   27.25    6.04
  -7 -15   6   10.05    4.32
   7 -15  -6   -6.30   11.54
   7 -15  -6    4.62    9.49
  -7  15   6   16.29    2.78
  -7  15   6   15.95    2.92
   7  15  -6   19.97    3.18
   5 -15  -6    0.25   10.54
   5 -15  -6   22.22    5.85
  -5 -15   6   13.20    4.26
   5 -15  -6   13.87    8.40
  -5 -15   6   13.23    6.54
   5  15  -6   14.38    2.97
  -5  15   6   17.70    2.96
  -5  15   6   19.57    3.66
  -5  15   6   20.42    2.88
   3 -15  -6    7.00    6.41
   3 -15  -6    3.34    9.27
   3 -15  -6  -17.01    9.53
   3 -15  -6   15.38   10.44
  -3 -15   6    2.24    6.00
  -3 -15   6    3.00    3.56
  -3  15   6    0.60    1.76
  -3  15   6   -1.43    2.45
   3  15  -6    3.00    2.26
  -3  15   6    2.91    1.92
   1 -15  -6   13.63    9.73
  -1 -15   6    6.30    5.81
   1 -15  -6   12.69    6.26
   1 -15  -6   18.90   10.14
   1 -15  -6   12.67   10.06
  -1  15   6   15.09    3.08
   1  15  -6    9.93    2.68
  -1  15   6    7.49    2.45
  -1  15   6    8.78    2.14
  -1 -15  -6   15.36    9.96
  -1 -15  -6    3.80    9.47
   1 -15   6    6.70    6.09
  -1 -15  -6   10.82    5.81
  -1 -15  -6   -9.61    8.14
  -1  15  -6    3.09    2.66
   1  15   6   -1.99    2.29
   1  15   6    0.68    1.76
   1  15   6    4.18    2.06
  -3 -15  -6   10.42    9.43
   3 -15   6    2.64    6.32
  -3 -15  -6   -4.16    8.84
  -3 -15  -6    2.71    5.03
   3  15   6    0.83    2.14
   3  15   6    3.55    1.96
   3  15   6   -1.43    2.18
  -5 -15  -6    9.12    9.64
   5 -15   6   -2.09    5.65
  -5 -15  -6   10.94    5.15
  -5 -15  -6    7.27    9.96
   5  15   6   -5.29    2.01
   5  15   6    0.93    2.21
   5  15   6    4.15    2.20
   7 -15   6   23.23    6.69
  -7 -15  -6    0.97   10.32
  -7 -15  -6   15.53    6.06
  -7 -15  -6   10.39   10.96
   7  15   6    7.74    2.73
   7  15   6    0.47    2.28
  -4 -16   6    3.44    6.90
   4 -16  -6   -8.01    8.09
   4 -16  -6    2.24   11.44
  -4 -16   6   -3.41    3.84
  -4  16   6    1.74    3.29
  -4  16   6   -0.61    2.05
   4  16  -6    6.29    2.85
  -4  16   6   -0.14    2.08
   2 -16  -6   -0.31   11.18
   2 -16  -6   -0.40   12.50
   2 -16  -6    2.72    7.08
   2 -16  -6    2.16   10.55
  -2 -16   6    1.12    6.86
  -2  16   6    0.47    2.85
   2  16  -6    2.96    2.93
  -2  16   6    2.48    1.99
  -2  16   6    3.75    2.20
   0 -16   6    1.83    7.48
   0 -16  -6   -3.16    6.53
   0 -16  -6  -20.31    9.73
   0 -16  -6    1.55   10.20
   0 -16  -6    2.42   11.12
   0  16  -6    3.96    3.01
   0  16   6   -2.59    2.37
   0  16   6   -0.92    2.06
   0  16   6    0.29    2.12
   2 -16   6    3.47    7.11
  -2 -16  -6    1.26    6.22
  -2 -16  -6    2.51   10.98
  -2 -16  -6   11.09   10.90
  -2 -16  -6   16.08   10.75
   2  16   6    4.97    2.44
   2  16   6    6.53    2.83
   2  16   6    5.30    2.35
  -4 -16  -6   10.50   10.55
  -4 -16  -6   -5.32   11.03
   4  16   6   -0.46    2.53
   4  16   6    3.29    2.36
   4  16   6    0.91    2.45
  18   0  -7    2.33    2.91
 -18   0   7   -2.01    2.24
  18   0  -7   -1.00    3.82
 -18   0   7    0.43    5.77
  16   0  -7   -1.99    2.28
 -16   0   7   -1.60    4.40
 -16   0   7   -0.47    1.12
 -16   0   7   -4.23    4.62
  14   0  -7    3.84    2.21
  14   0  -7    1.12    2.99
 -14   0   7    1.83    3.03
 -14   0   7    0.04    0.93
  14   0  -7    2.15    3.63
  12   0  -7    2.21    2.21
  12   0  -7   -0.29    2.97
 -12   0   7    1.50    0.79
  12   0  -7   -0.22    3.93
  10   0  -7   -5.59    3.00
  10   0  -7   -2.00    2.56
  10   0  -7    0.56    1.65
 -10   0   7    0.15    0.68
 -10   0   7    0.81    1.72
  -8   0   7   -0.71    1.49
  -8   0   7   -1.32    0.65
   8   0  -7   -1.96    1.33
  -8   0   7   -0.89    1.18
   8   0  -7    0.89    3.03
   8   0  -7    2.73    2.38
  -6   0   7    0.77    0.93
   6   0  -7    1.10    1.43
   6   0  -7   -1.55    2.52
  -6   0   7   -0.76    1.50
  -6   0   7   -0.46    0.42
   6   0  -7   -2.81    2.85
  -6   0   7   -1.56    0.73
   4   0  -7   -3.27    3.89
  -4   0   7   -0.44    0.42
  -4   0   7   -0.89    0.79
   4   0  -7    0.30    1.36
   4   0  -7   -1.89    3.76
  -4   0   7   -0.47    1.33
   4   0  -7    0.99    2.51
   4   0  -7    3.01    2.75
  -2   0   7    1.63    1.47
   2   0  -7    7.23    4.69
   2   0  -7   -1.43    2.25
   2   0  -7    1.31    2.90
   2   0  -7   -2.00    3.83
  -2   0   7    0.25    0.41
   0   0   7    0.65    0.42
   0   0  -7    1.64    2.37
   0   0  -7   -2.85    4.50
   0   0  -7    3.94    4.75
   0   0  -7   -0.30    2.91
   0   0   7    1.05    1.16
   2   0   7    0.47    0.44
  -2   0  -7    2.54    2.70
   2   0   7   -0.02    1.20
  -2   0  -7   -2.19    2.07
  -2   0  -7   -1.15    4.16
  -2   0  -7   10.56    5.14
  -4   0  -7    1.83    2.11
  -4   0  -7   -5.58    3.92
  -4   0  -7   -9.06    4.33
   4   0   7   -0.85    0.47
  -4   0  -7   -3.86    2.26
   4   0   7   -0.62    1.11
  -4   0  -7    0.91    1.81
  -6   0  -7   -2.07    5.23
  -6   0  -7    0.96    2.08
  -6   0  -7    2.13    4.68
   6   0   7   -0.88    1.42
   6   0   7    0.15    0.47
  -6   0  -7    1.66    2.78
  -6   0  -7   -1.54    1.95
  -8   0  -7    1.28    2.84
   8   0   7    0.81    0.51
  -8   0  -7   -3.38    4.49
  -8   0  -7    0.09    2.18
  -8   0  -7   -5.06    4.95
  -8   0  -7   -0.89    1.99
   8   0   7   -0.79    1.64
  10   0   7   -0.49    1.82
 -10   0  -7   -0.41    2.25
 -10   0  -7   -0.24    3.46
  10   0   7    0.38    0.57
 -10   0  -7   -8.04    5.49
 -10   0  -7    2.73    7.49
  12   0   7   -0.46    2.17
 -12   0  -7    4.67    3.99
 -12   0  -7   -7.25    8.18
 -12   0  -7   -6.56    6.94
 -12   0  -7   -4.14    4.26
  12   0   7    0.96    0.75
 -12   0  -7    2.43    3.11
 -14   0  -7   -2.14    3.69
 -14   0  -7    2.49   10.35
 -14   0  -7   -1.13    5.08
 -14   0  -7   10.60    9.19
  14   0   7   -1.79    2.64
 -14   0  -7    6.76    4.44
 -16   0  -7   -6.43    4.80
 -16   0  -7    4.89   12.84
  16   0   7    4.85    3.91
 -16   0  -7   18.82   12.96
 -16   0  -7  -10.69    7.16
 -18   0  -7   -2.21   16.78
 -18   0  -7   12.67   16.38
  18   0   7   -0.76    6.00
 -18   0  -7   -0.15    6.11
  19  -1  -7    3.92    2.90
 -19  -1   7   -9.03    6.65
 -19   1   7    4.32    2.52
 -19   1   7   10.90    7.66
  19   1  -7    4.32    3.20
  17  -1  -7   37.11    4.88
 -17  -1   7   45.52    7.49
  17  -1  -7   29.02    5.27
 -17  -1   7   29.10    6.15
  17   1  -7   29.99    4.48
  17   1  -7   31.19    5.55
 -17   1   7   30.29    3.75
 -17   1   7   32.56    6.83
 -15  -1   7    0.98    1.00
  15  -1  -7    4.28    3.44
 -15  -1   7   -0.66    3.69
  15  -1  -7   -2.34    2.24
  15  -1  -7   -2.89    3.79
  15   1  -7   -0.12    2.94
 -15   1   7    0.50    3.36
 -15   1   7   -0.14    1.06
  15   1  -7   -1.28    2.20
  13  -1  -7    6.38    2.39
  13  -1  -7    8.51    4.23
 -13  -1   7    4.35    2.85
  13  -1  -7   -1.14    3.13
 -13  -1   7    2.42    0.88
  13   1  -7    7.24    3.31
 -13   1   7    1.78    2.55
 -13   1   7    2.16    0.95
  13   1  -7   -1.24    3.33
  13   1  -7    2.07    2.13
 -11  -1   7    0.18    0.68
  11  -1  -7   -3.19    3.51
 -11  -1   7    2.10    1.96
  11  -1  -7    0.98    2.71
  11  -1  -7   -0.86    2.37
 -11   1   7    1.91    1.85
  11   1  -7   -0.86    3.55
  11   1  -7   -0.06    2.10
  11   1  -7   -2.12    1.48
 -11   1   7   -0.46    0.72
  -9  -1   7    0.47    0.70
   9  -1  -7    3.77    3.16
  -9  -1   7   -0.08    1.28
   9  -1  -7    1.11    1.56
   9  -1  -7    3.67    2.66
  -9  -1   7    1.30    1.90
   9   1  -7    2.11    2.85
   9   1  -7    0.05    1.42
   9   1  -7    5.23    2.33
  -9   1   7    0.92    0.70
  -7  -1   7   35.53    4.40
   7  -1  -7   21.11    4.66
  -7  -1   7   35.45    2.96
   7  -1  -7   31.45    3.87
  -7  -1   7   34.56    3.31
   7  -1  -7   38.48    7.17
  -7   1   7   34.74    2.80
  -7   1   7   35.22    3.25
   7   1  -7   35.48    4.87
  -7   1   7   37.39    3.02
  -7   1   7   29.79    3.99
   7   1  -7   35.56    6.37
   7   1  -7   33.30    3.71
  -5  -1   7    6.12    1.22
   5  -1  -7    7.57    4.49
   5  -1  -7    1.52    2.60
   5  -1  -7    0.40    1.51
   5  -1  -7    7.77    3.67
  -5  -1   7    4.13    1.98
  -5   1   7    4.97    0.75
  -5   1   7    4.38    1.77
  -5   1   7    4.45    0.93
   5   1  -7    1.59    1.33
   5   1  -7    5.03    2.63
   5   1  -7    7.59    3.34
  -5   1   7    5.19    1.05
   3  -1  -7    7.95    3.28
  -3  -1   7   11.18    1.10
  -3  -1   7   10.99    2.39
  -3  -1   7   13.29    1.77
   3  -1  -7   15.09    5.49
   3  -1  -7   15.74    4.61
   3  -1  -7    8.29    5.17
  -3   1   7   13.50    1.28
   3   1  -7    6.13    2.72
   3   1  -7   10.51    1.96
   3   1  -7   16.24    5.07
  -3   1   7   15.66    1.87
   3   1  -7    8.91    4.23
   3   1  -7   10.74    4.76
  -3   1   7   10.72    2.14
  -1  -1   7   43.91    4.27
   1  -1  -7   54.11    8.67
   1  -1  -7   64.55    9.37
   1  -1  -7   35.04    6.58
  -1  -1   7   45.70    3.23
   1  -1  -7   35.91    5.43
  -1   1   7   37.89    4.10
  -1   1   7   44.42    3.33
   1   1  -7   42.17    5.67
   1   1  -7   41.15    8.18
   1   1  -7   34.83    7.38
   1   1  -7   40.96    6.26
  -1  -1  -7  125.34   12.30
  -1  -1  -7   80.24   10.20
   1  -1   7  105.61    8.38
  -1  -1  -7  101.73   11.71
  -1  -1  -7   99.30    8.27
  -1  -1  -7  106.46    9.27
   1  -1   7  102.86    7.43
   1   1   7  104.77    8.24
   1   1   7  107.74    7.52
  -1   1  -7  108.86   12.63
  -1   1  -7   85.61   10.14
  -1   1  -7  121.35    9.64
  -1   1  -7   96.82   12.02
  -3  -1  -7   -1.06    1.46
  -3  -1  -7    3.27    2.87
   3  -1   7    0.44    0.43
  -3  -1  -7   -1.51    1.51
  -3  -1  -7   -2.83    4.19
  -3  -1  -7    2.02    1.93
   3  -1   7    1.86    1.31
  -3  -1  -7   -2.32    4.15
   3   1   7    0.90    0.49
  -3   1  -7   -0.19    2.96
   3   1   7   -0.67    1.04
  -3   1  -7    7.75    4.81
  -3   1  -7   -1.64    1.95
  -3   1  -7    7.81    5.75
   3   1   7    1.05    0.59
  -5  -1  -7    4.36    4.33
  -5  -1  -7    2.59    1.88
  -5  -1  -7   -2.65    4.22
   5  -1   7    5.84    1.97
  -5  -1  -7    3.31    2.86
  -5  -1  -7    7.34    2.33
  -5   1  -7    3.85    5.02
   5   1   7    4.85    0.78
  -5   1  -7    5.11    2.29
  -5   1  -7    2.31    4.54
  -5   1  -7    4.86    3.02
   5   1   7    6.00    0.88
  -5   1  -7    8.65    2.60
   5   1   7    2.52    1.32
  -7  -1  -7   23.38    3.96
   7  -1   7   28.66    3.63
  -7  -1  -7   26.01    6.90
  -7  -1  -7   23.51    7.29
  -7  -1  -7   33.56    4.36
  -7  -1  -7   26.73    5.21
   7   1   7   24.51    2.38
  -7   1  -7   20.22    3.84
  -7   1  -7   35.08    8.50
   7   1   7   28.43    2.25
  -7   1  -7   33.30    4.53
  -7   1  -7   23.75    5.02
  -7   1  -7   26.53    7.40
   7   1   7   27.29    3.60
  -9  -1  -7   25.47    8.24
   9  -1   7   22.93    3.35
  -9  -1  -7   17.58    3.88
   9  -1   7   23.71    1.75
  -9  -1  -7   27.65    5.90
  -9  -1  -7   15.95    6.37
  -9  -1  -7   24.85    3.81
   9   1   7   29.24    3.68
  -9   1  -7   12.77    4.65
  -9   1  -7   17.85    3.67
  -9   1  -7   20.16    7.16
  -9   1  -7   25.17    7.53
   9   1   7   20.28    1.91
  -9   1  -7   15.26    4.56
 -11  -1  -7   -0.81    2.55
 -11  -1  -7    2.05    7.33
 -11  -1  -7    1.22    3.29
 -11  -1  -7    6.21    7.66
 -11  -1  -7    5.10    3.78
  11  -1   7    3.14    0.65
  11  -1   7    7.78    2.40
 -11   1  -7   -1.64    3.69
 -11   1  -7    0.76    2.87
 -11   1  -7    4.54    3.62
  11   1   7    1.63    0.77
 -11   1  -7   -4.97    7.98
  11   1   7    2.61    2.16
 -11   1  -7   13.34    7.13
 -13  -1  -7   18.35   10.22
 -13  -1  -7   -3.21    3.83
 -13  -1  -7    5.13    5.22
 -13  -1  -7    8.67    3.56
  13  -1   7    3.02    2.60
 -13  -1  -7   -3.98    8.98
 -13   1  -7    2.04    4.08
 -13   1  -7   10.17   10.50
  13   1   7    4.06    2.94
 -13   1  -7    2.54    3.62
 -13   1  -7   -0.40    4.69
  13   1   7    5.88    1.06
 -13   1  -7   -0.72    9.58
 -15  -1  -7   -4.47    4.32
  15  -1   7    0.97    3.26
 -15  -1  -7   -0.75    4.30
 -15  -1  -7    2.25   10.86
 -15  -1  -7   -9.56    9.93
 -15   1  -7    0.08   11.75
  15   1   7    1.36    3.50
 -15   1  -7    2.63    6.25
 -15   1  -7   -3.97    4.42
 -15   1  -7    1.53   11.40
 -17  -1  -7   16.65    6.68
  17  -1   7   12.98    5.00
 -17  -1  -7    3.47   14.16
 -17  -1  -7   17.85   15.48
 -17  -1  -7    5.89    9.70
 -17   1  -7   -7.97   14.72
 -17   1  -7   -3.85   14.33
  17   1   7   17.83    5.26
 -17   1  -7   16.63    6.52
 -18  -2   7   31.09    7.41
  18  -2  -7   29.50    5.69
  18  -2  -7   40.86    5.42
  18   2  -7   35.85    4.81
 -18   2   7   26.66    7.86
 -18   2   7   36.40    4.22
 -16  -2   7    2.81    4.35
  16  -2  -7   -3.70    2.39
  16  -2  -7    4.24    4.47
  16  -2  -7    3.64    3.79
  16   2  -7    4.55    2.46
 -16   2   7    2.58    1.43
  16   2  -7   -4.43    2.95
 -16   2   7    6.03    4.72
  14  -2  -7    3.28    2.53
 -14  -2   7    9.83    1.26
  14  -2  -7    6.89    4.30
  14  -2  -7   10.23    4.07
 -14  -2   7    7.82    3.86
  14   2  -7    6.41    4.05
 -14   2   7    8.71    2.35
 -14   2   7    5.47    3.40
  14   2  -7    8.79    2.51
  14   2  -7   10.19    3.50
  12  -2  -7   60.71    7.06
  12  -2  -7   62.70    9.04
 -12  -2   7   55.92    6.01
  12  -2  -7   54.88    6.20
 -12  -2   7   54.66    4.38
  12   2  -7   49.38    6.76
 -12   2   7   61.33    4.61
  12   2  -7   52.01    7.68
 -12   2   7   65.41    5.96
  12   2  -7   57.21    5.78
 -10  -2   7  114.16    8.47
 -10  -2   7  120.66    9.98
  10  -2  -7  124.64   12.43
 -10  -2   7  115.71    9.42
  10  -2  -7  112.11   10.79
  10  -2  -7  103.54    9.62
 -10   2   7  122.76    8.67
  10   2  -7  117.44   11.62
 -10   2   7  106.17    9.05
  10   2  -7  112.06   10.12
  10   2  -7  134.73    9.43
   8  -2  -7    0.48    2.87
   8  -2  -7   -0.97    1.62
   8  -2  -7    5.02    3.92
  -8  -2   7    2.64    1.30
  -8  -2   7   -2.32    1.67
  -8  -2   7    0.83    0.68
   8   2  -7   -0.30    1.32
  -8   2   7    0.77    0.59
  -8   2   7    0.70    0.70
   8   2  -7   -0.04    2.46
   8   2  -7   -1.66    2.38
   6  -2  -7    0.98    2.54
  -6  -2   7    4.77    2.17
  -6  -2   7    0.87    0.88
   6  -2  -7    0.72    3.78
   6  -2  -7    0.41    3.29
   6  -2  -7   -0.54    1.53
  -6  -2   7    3.93    1.25
  -6   2   7    3.52    0.75
  -6   2   7    4.25    1.03
  -6   2   7    2.72    1.67
   6   2  -7    2.13    2.57
   6   2  -7    6.33    1.54
   6   2  -7    4.24    2.33
   4  -2  -7   48.12    6.82
   4  -2  -7   56.43    8.63
  -4  -2   7   69.82    4.99
   4  -2  -7   63.75    8.48
   4  -2  -7   66.83    9.43
  -4  -2   7   63.28    5.79
  -4   2   7   55.73    5.41
  -4   2   7   60.59    4.60
   4   2  -7   71.86    8.74
   4   2  -7   60.84    7.32
  -4   2   7   59.29    5.37
   4   2  -7   46.54    6.26
   4   2  -7   62.11    5.20
  -4   2   7   60.89    4.49
  -2  -2   7  333.88   24.74
   2  -2  -7  417.17   29.01
   2  -2  -7  335.83   28.25
   2  -2  -7  364.28   26.96
  -2  -2   7  341.97   25.83
  -2   2   7  351.35   24.95
   2   2  -7  346.15   26.60
  -2   2   7  345.21   25.56
   2   2  -7  401.46   29.16
   2   2  -7  414.43   29.40
   2   2  -7  299.30   25.28
   0  -2  -7    3.22    1.72
   0  -2  -7    4.98    4.18
   0  -2   7    5.29    2.16
   0  -2  -7    3.22    3.21
   0  -2   7    5.08    0.60
   0  -2  -7    8.66    4.78
   0  -2  -7    5.93    2.37
   0   2   7    5.03    1.42
   0   2   7    4.11    0.72
   0   2  -7    5.49    2.41
   0   2   7    4.45    1.30
   0   2  -7   -0.56    4.38
   0   2  -7    1.52    4.30
   0   2  -7    2.88    2.85
  -2  -2  -7   25.34    5.69
  -2  -2  -7   28.74    7.16
  -2  -2  -7   41.39    4.84
  -2  -2  -7   30.58    6.62
  -2  -2  -7   38.08    4.22
   2  -2   7   41.86    2.88
   2  -2   7   37.27    4.21
  -2  -2  -7   36.08    3.81
   2   2   7   39.70    3.72
  -2   2  -7   45.73    8.35
  -2   2  -7   39.75    8.08
  -2   2  -7   30.87    4.84
  -2   2  -7   34.39    6.06
   2   2   7   40.92    3.09
   2   2   7   34.48    2.99
  -4  -2  -7   81.07    8.93
   4  -2   7   84.28    7.01
  -4  -2  -7   76.52   10.10
  -4  -2  -7   84.70    7.13
  -4  -2  -7   63.58   10.46
  -4  -2  -7   80.84    7.50
   4   2   7   77.12    6.52
   4   2   7   82.17    5.92
  -4   2  -7   63.12    7.42
   4   2   7   74.16    5.96
  -4   2  -7   86.08   11.70
  -4   2  -7   71.02    8.45
  -4   2  -7   90.42   11.66
  -4   2  -7   87.15    5.66
  -6  -2  -7  156.59   13.47
   6  -2   7  133.94   11.12
  -6  -2  -7  150.84   11.56
  -6  -2  -7  147.12   11.64
  -6  -2  -7  150.45   14.68
  -6  -2  -7  140.30   14.35
   6   2   7  140.90   10.81
  -6   2  -7  135.89   11.72
  -6   2  -7  127.65   12.51
   6   2   7  143.91   10.18
  -6   2  -7  127.76   15.11
   6   2   7  138.27   10.30
  -6   2  -7  138.60   15.40
  -8  -2  -7    9.59    2.78
  -8  -2  -7    7.72    2.56
   8  -2   7    7.83    2.23
  -8  -2  -7    2.31    6.66
  -8  -2  -7    6.11    3.81
  -8  -2  -7    8.45    5.89
   8   2   7    5.66    1.09
   8   2   7    3.51    1.66
   8   2   7    7.20    0.99
  -8   2  -7   14.15    6.19
  -8   2  -7    7.46    6.69
  -8   2  -7    6.69    3.56
  -8   2  -7    9.59    3.27
 -10  -2  -7   35.38    6.20
 -10  -2  -7   25.44    8.85
 -10  -2  -7   26.04    4.62
  10  -2   7   24.22    3.76
 -10   2  -7   29.61    4.32
  10   2   7   25.65    2.32
 -10   2  -7   27.79    9.84
  10   2   7   26.44    3.60
 -10   2  -7   24.74    5.40
 -10   2  -7   25.93    8.76
 -10   2  -7   20.99    5.02
 -12  -2  -7   20.57    8.93
 -12  -2  -7   19.68    9.14
 -12  -2  -7   13.60    4.36
  12  -2   7   14.97    3.17
 -12   2  -7   11.24    4.43
 -12   2  -7    4.32   10.56
 -12   2  -7   14.48    4.13
 -12   2  -7   14.21    4.95
  12   2   7   20.02    3.31
 -12   2  -7   26.09   11.01
  12   2   7   15.38    1.77
 -14  -2  -7   20.47   11.25
  14  -2   7   18.23    3.87
 -14  -2  -7   17.70    5.28
 -14  -2  -7   19.82    8.02
 -14  -2  -7    3.84    9.55
 -14   2  -7   16.80    5.30
  14   2   7   18.30    3.86
 -14   2  -7   28.99   12.27
 -14   2  -7   29.22   12.19
 -14   2  -7   11.51    6.08
  14   2   7   20.39    2.12
 -16  -2  -7   50.04    7.93
  16  -2   7   52.60    6.78
 -16  -2  -7   50.68    8.45
 -16  -2  -7   60.60   11.87
 -16  -2  -7   51.30   15.72
 -16  -2  -7   48.11   14.92
 -16   2  -7   44.48   16.07
 -16   2  -7   38.64    8.01
  16   2   7   47.50    6.63
 -16   2  -7   57.67   15.87
 -18  -2  -7   -0.98   15.89
  18  -2   7    5.47    5.56
 -18  -2  -7    7.07   15.17
 -18  -2  -7    0.01   10.88
 -18  -2  -7   11.34    6.67
 -18   2  -7    2.70   17.19
 -18   2  -7   28.33   19.16
 -18   2  -7    0.98    6.46
  19  -3  -7    1.06    3.37
 -19  -3   7    0.29    6.72
  19   3  -7   -0.61    2.73
 -19   3   7    0.11    2.39
  17  -3  -7   27.71    4.37
 -17  -3   7   32.91    6.90
  17  -3  -7   19.40    4.89
 -17   3   7   22.71    2.97
  17   3  -7   27.65    4.31
 -15  -3   7   90.48   10.16
  15  -3  -7  103.45    9.80
  15  -3  -7   96.32   11.10
  15   3  -7   99.81    8.37
  15   3  -7   82.48    9.15
 -15   3   7   90.49    7.33
 -15   3   7   93.09    9.79
 -13  -3   7  135.80   14.10
 -13  -3   7  117.06    8.71
  13  -3  -7  107.68   11.98
  13  -3  -7  129.17   13.08
  13  -3  -7  115.20   10.50
 -13   3   7  119.16    9.54
  13   3  -7  140.17   12.41
  13   3  -7  116.33   10.82
 -11  -3   7    3.01    2.46
  11  -3  -7    2.08    2.21
 -11  -3   7    2.40    1.83
  11  -3  -7   -0.62    2.83
 -11  -3   7    0.97    0.62
 -11   3   7    2.89    2.05
  11   3  -7   -1.09    2.52
  11   3  -7   -0.55    1.37
  11   3  -7    1.76    3.22
 -11   3   7    0.54    0.71
   9  -3  -7  141.49   11.44
  -9  -3   7  135.21   10.88
  -9  -3   7  140.58   10.00
   9  -3  -7  138.39   14.25
   9  -3  -7  132.93   12.75
  -9  -3   7  136.43   11.43
   9   3  -7  134.31   11.62
  -9   3   7  108.51   13.78
   9   3  -7  148.10   13.00
  -9   3   7  142.93   10.24
  -9   3   7  154.82   10.50
   9   3  -7  129.65   10.60
  -7  -3   7  242.98   19.26
   7  -3  -7  246.08   21.25
  -7  -3   7  263.87   18.81
   7  -3  -7  277.58   20.13
  -7  -3   7  262.96   20.00
  -7   3   7  259.98   18.93
   7   3  -7  248.66   20.30
  -7   3   7  261.21   18.85
   7   3  -7  300.27   19.33
   7   3  -7  268.39   21.24
   5  -3  -7   79.33    8.45
   5  -3  -7   82.62    9.93
   5  -3  -7   73.74    9.79
  -5  -3   7   70.52    7.08
   5  -3  -7   75.55    7.17
  -5  -3   7   78.58    6.03
   5  -3  -7   77.03   10.05
  -5   3   7   78.45    6.06
   5   3  -7   80.30    8.20
   5   3  -7   85.36    6.32
  -5   3   7   82.81    6.80
  -5   3   7   79.99    5.85
   5   3  -7   58.33    7.12
   3  -3  -7   -2.55    3.00
   3  -3  -7   -0.84    2.35
   3  -3  -7    4.27    4.38
   3  -3  -7    2.36    3.85
  -3  -3   7    0.79    1.89
  -3   3   7    0.01    0.57
   3   3  -7    2.46    1.97
   3   3  -7    3.35    2.64
  -3   3   7   -0.18    0.98
   3   3  -7    1.63    3.94
  -3   3   7   -0.52    0.85
   3   3  -7    0.46    1.08
   1  -3  -7   79.88   10.04
  -1  -3   7   98.82    6.37
   1  -3  -7   94.65   10.41
  -1  -3   7   88.48    7.68
   1  -3  -7   91.00    7.45
   1  -3  -7   90.69    8.57
   1   3  -7   85.56    8.29
  -1   3   7   92.41    6.69
   1   3  -7   90.78   10.65
   1   3  -7   80.67    9.03
   1   3  -7   80.95    6.94
  -1   3   7   91.51    7.20
  -1  -3  -7  112.50   11.10
  -1  -3  -7  112.56    8.67
   1  -3   7  105.22    9.01
   1  -3   7  112.72    7.98
  -1  -3  -7  112.94    8.78
  -1  -3  -7  119.49   11.96
  -1  -3  -7   91.98    9.49
  -1  -3  -7  113.43   12.01
   1   3   7  106.79    8.55
   1   3   7  121.42    8.17
  -1   3  -7   88.23   10.28
   1   3   7  123.94    8.24
  -1   3  -7  104.83    9.59
  -1   3  -7  122.12   12.76
  -1   3  -7  116.12   12.81
   1   3   7  108.95    8.59
   3  -3   7  235.79   18.49
  -3  -3  -7  246.92   20.57
  -3  -3  -7  243.21   18.99
  -3  -3  -7  279.72   18.55
  -3  -3  -7  266.78   21.58
  -3  -3  -7  245.42   21.20
   3  -3   7  233.79   17.47
  -3  -3  -7  250.89   17.93
  -3   3  -7  255.59   22.45
  -3   3  -7  215.03   19.69
  -3   3  -7  256.90   17.39
   3   3   7  265.80   17.70
  -3   3  -7  252.46   19.07
  -3   3  -7  199.65   21.39
   3   3   7  251.17   18.10
   3   3   7  241.18   17.68
   5  -3   7   41.44    4.46
  -5  -3  -7   39.12    7.47
  -5  -3  -7   22.47    6.01
  -5  -3  -7   44.32    4.48
  -5  -3  -7   33.05    4.65
  -5  -3  -7   39.39    6.43
   5   3   7   38.10    3.80
  -5   3  -7   25.32    5.22
   5   3   7   40.35    3.14
  -5   3  -7   49.74    5.29
  -5   3  -7   32.28    7.92
  -5   3  -7   33.22    8.52
   5   3   7   41.15    3.22
   7  -3   7   85.59    7.60
  -7  -3  -7   94.67   11.52
  -7  -3  -7   86.92   11.39
  -7  -3  -7   94.21    8.02
  -7  -3  -7  105.01   10.30
  -7   3  -7   82.39   12.56
  -7   3  -7  104.15   12.77
   7   3   7   78.32    6.54
   7   3   7   95.09    7.23
  -7   3  -7   81.02    8.76
   7   3   7   89.79    6.72
  -9  -3  -7  241.28   17.93
   9  -3   7  231.88   17.39
  -9  -3  -7  243.46   21.63
  -9  -3  -7  194.63   21.63
   9   3   7  219.44   16.28
  -9   3  -7  239.09   17.55
  -9   3  -7  204.09   18.90
  -9   3  -7  216.73   22.28
   9   3   7  231.29   16.50
  -9   3  -7  250.56   22.75
  -9   3  -7  205.99   18.03
   9   3   7  247.42   17.25
 -11  -3  -7   72.40    8.17
 -11  -3  -7   60.56   12.67
 -11  -3  -7   71.59   13.10
  11  -3   7   74.87    7.00
 -11   3  -7   82.51   14.91
  11   3   7   74.65    5.77
 -11   3  -7   62.16    9.00
  11   3   7   71.05    5.48
 -11   3  -7   75.95    7.66
 -11   3  -7   62.30    8.04
  11   3   7   74.55    6.84
 -11   3  -7   71.36   13.52
 -13  -3  -7   -1.82    8.92
 -13  -3  -7    4.59    9.14
 -13  -3  -7    1.87    3.86
  13  -3   7   -3.33    2.48
  13   3   7    0.52    0.90
 -13   3  -7   10.09   10.79
 -13   3  -7   17.74   11.96
  13   3   7    2.90    2.81
  13   3   7    1.17    1.28
 -13   3  -7    2.06    3.82
  15  -3   7   26.97    4.66
 -15  -3  -7   23.33   13.17
 -15  -3  -7   28.23    6.29
 -15  -3  -7   34.95   13.00
 -15   3  -7   29.00   13.65
  15   3   7   28.08    4.67
  15   3   7   18.86    2.50
 -15   3  -7   14.71    6.18
 -15   3  -7   28.56   13.31
  17  -3   7   46.68    7.26
 -17  -3  -7   46.80    8.83
 -17  -3  -7   75.61   18.01
 -17  -3  -7   75.17   17.58
 -17  -3  -7   56.84   12.73
 -17   3  -7   65.60   18.54
 -17   3  -7   43.69    9.00
 -17   3  -7   25.99   16.65
 -18  -4   7   98.96   12.82
  18  -4  -7   85.75   10.03
  18  -4  -7   97.79    9.38
 -18  -4   7  102.17   12.20
 -18  -4   7  105.07   13.97
 -18   4   7   86.41    7.77
  18   4  -7   92.50    8.60
  16  -4  -7   39.35    7.42
  16  -4  -7   45.25    6.21
  16  -4  -7   47.10    5.97
 -16  -4   7   42.59    6.90
  16   4  -7   37.88    5.07
 -16   4   7   39.65    4.11
  14  -4  -7   36.87    6.01
  14  -4  -7   36.97    7.03
 -14  -4   7   35.88    5.63
  14  -4  -7   32.87    4.86
  14   4  -7   21.50    4.51
 -14   4   7   27.74    3.20
  14   4  -7   32.66    4.17
 -14   4   7   42.89    5.51
  12  -4  -7  179.83   17.04
  12  -4  -7  165.25   14.83
 -12  -4   7  168.07   12.33
 -12  -4   7  164.28   14.03
  12  -4  -7  173.45   14.27
  12   4  -7  181.45   14.45
 -12   4   7  168.36   13.88
  12   4  -7  177.65   13.35
 -12   4   7  168.07   12.77
  12   4  -7  207.44   15.93
 -10  -4   7  182.41   15.10
  10  -4  -7  190.19   15.32
 -10  -4   7  195.47   13.56
 -10  -4   7  177.65   14.67
  10  -4  -7  184.33   17.81
  10  -4  -7  180.26   16.35
  10   4  -7  214.17   14.37
  10   4  -7  190.61   15.83
 -10   4   7  180.52   14.28
  10   4  -7  209.75   16.54
   8  -4  -7   30.61    4.57
  -8  -4   7   34.85    3.96
   8  -4  -7   39.32    6.65
  -8  -4   7   41.48    5.01
   8  -4  -7   28.16    6.90
  -8  -4   7   39.76    3.13
  -8   4   7   38.37    3.36
  -8   4   7   37.52    3.32
  -8   4   7   54.05    6.05
   8   4  -7   37.73    4.92
   8   4  -7   45.58    3.88
   8   4  -7   45.03    7.77
   6  -4  -7  111.90   13.13
  -6  -4   7  124.97   10.55
  -6  -4   7  117.55    9.15
   6  -4  -7  118.33   10.43
   6  -4  -7  118.08   11.81
   6  -4  -7  118.70   12.43
   6  -4  -7  131.95   12.51
  -6   4   7  114.93    9.12
   6   4  -7  133.92    9.44
  -6   4   7  136.09    9.31
   6   4  -7  134.76   10.72
   6   4  -7  122.81   11.26
  -4  -4   7  217.11   17.23
   4  -4  -7  218.91   18.33
   4  -4  -7  247.11   19.92
   4  -4  -7  180.76   19.35
   4  -4  -7  218.97   19.38
   4   4  -7  263.84   17.79
   4   4  -7  241.36   18.51
  -4   4   7  210.24   16.63
  -4   4   7  229.68   16.36
  -4   4   7  222.36   16.15
   2  -4  -7  163.51   14.73
   2  -4  -7  142.04   14.11
   2  -4  -7  122.28   14.03
  -2  -4   7  147.10   11.96
   2  -4  -7  145.95   12.92
  -2   4   7  157.18   11.02
  -2   4   7  146.21   11.27
   2   4  -7  143.56   13.07
  -2   4   7  159.31   11.44
   2   4  -7  179.07   12.59
   2   4  -7  149.54   11.05
   0  -4  -7   25.87    5.86
   0  -4  -7   23.12    3.06
   0  -4   7   19.53    3.05
   0  -4  -7   22.89    5.60
   0  -4  -7   27.83    6.29
   0  -4  -7   26.09    4.25
   0   4  -7   23.27    2.26
   0   4   7   23.70    2.24
   0   4  -7   23.26    5.95
   0   4   7   19.72    2.46
   0   4  -7   18.33    3.57
   0   4   7   20.52    2.06
   0   4   7   25.45    2.62
   0   4  -7   17.73    3.88
  -2  -4  -7    1.95    2.89
   2  -4   7    0.81    0.36
  -2  -4  -7    1.57    1.55
  -2  -4  -7    0.04    3.69
  -2  -4  -7    1.23    3.26
   2  -4   7   -1.18    1.53
  -2  -4  -7    1.43    2.04
  -2  -4  -7   -2.64    1.08
   2   4   7    0.03    0.57
   2   4   7   -2.02    1.00
   2   4   7    0.60    1.05
  -2   4  -7   -1.16    2.18
  -2   4  -7   -6.64    4.08
  -2   4  -7    1.56    0.99
  -2   4  -7   -2.80    1.72
  -2   4  -7   -2.39    4.42
   2   4   7    0.28    0.59
   4  -4   7  251.45   20.24
  -4  -4  -7  274.71   20.77
  -4  -4  -7  308.76   22.99
  -4  -4  -7  262.46   22.96
  -4  -4  -7  277.51   23.03
  -4  -4  -7  254.93   20.13
  -4   4  -7  280.56   24.35
   4   4   7  277.19   19.71
  -4   4  -7  287.19   21.31
   4   4   7  278.05   19.47
  -4   4  -7  257.50   20.44
   4   4   7  269.32   19.48
  -6  -4  -7  197.48   18.25
  -6  -4  -7  202.64   15.39
   6  -4   7  195.42   15.33
  -6  -4  -7  202.49   18.24
  -6   4  -7  167.26   19.33
   6   4   7  204.76   14.69
   6   4   7  209.22   14.37
   6   4   7  206.27   14.47
  -6   4  -7  203.42   20.09
  -6   4  -7  182.77   15.78
   8  -4   7   82.60    7.43
  -8  -4  -7   82.74   11.37
  -8  -4  -7   70.96   12.09
  -8  -4  -7   91.14    7.70
  -8   4  -7   68.74    7.64
   8   4   7   79.92    6.10
  -8   4  -7   78.71    7.39
  -8   4  -7   81.87   13.12
   8   4   7   80.23    6.25
  -8   4  -7   80.07   13.60
   8   4   7   87.51    6.69
 -10  -4  -7    9.30    4.44
  10  -4   7   18.77    3.26
 -10  -4  -7   19.14    8.20
 -10  -4  -7   10.76    7.74
  10   4   7   13.32    2.01
 -10   4  -7   12.74    2.93
 -10   4  -7   15.96    2.99
  10   4   7    9.72    2.40
 -10   4  -7   12.11    7.88
 -10   4  -7   -4.17    9.28
  10   4   7   15.91    1.75
  12  -4   7  197.24   14.77
 -12  -4  -7  165.32   20.46
 -12  -4  -7  176.86   20.93
 -12  -4  -7  157.04   15.40
  12   4   7  182.47   13.26
 -12   4  -7  161.19   21.91
 -12   4  -7  177.50   23.21
  12   4   7  182.69   13.57
  12   4   7  205.72   14.33
  14  -4   7  124.64   10.26
 -14  -4  -7   94.34   16.43
 -14  -4  -7   62.58   14.70
 -14  -4  -7  100.06   11.01
  14   4   7   88.89    8.03
  14   4   7  124.12    9.76
 -14   4  -7  131.84   19.64
 -14   4  -7  133.24   19.71
  14   4   7  109.89    8.36
 -16  -4  -7    4.16   13.06
 -16  -4  -7    5.52    5.26
  16  -4   7   14.29    6.75
 -16  -4  -7    2.23   12.70
 -16   4  -7   29.64   14.88
  16   4   7    6.92    1.82
 -16   4  -7    4.44   14.15
  16   4   7   10.30    2.21
  17  -5  -7   45.81    7.40
  17  -5  -7   33.71    5.74
 -17  -5   7   36.02    7.18
  17  -5  -7   22.95    4.80
  17   5  -7   29.48    4.28
 -17   5   7   34.96    3.92
  15  -5  -7  136.95   12.89
  15  -5  -7  144.48   13.80
 -15  -5   7  157.14   14.13
  15  -5  -7  178.05   15.41
 -15   5   7  144.86   11.48
  15   5  -7  159.01   12.14
  13  -5  -7  101.09   11.95
  13  -5  -7   88.49    9.07
  13  -5  -7   94.99    9.95
 -13  -5   7   89.06    9.10
  13   5  -7  110.04    9.35
 -13   5   7   82.56    7.20
  13   5  -7   92.01    7.87
 -11  -5   7    4.41    2.83
 -11  -5   7    1.65    2.42
  11  -5  -7    3.02    2.76
  11  -5  -7    4.27    3.89
  11   5  -7    1.91    2.56
 -11   5   7    1.62    1.20
  -9  -5   7   57.00    6.47
   9  -5  -7   58.17    8.30
  -9  -5   7   54.76    5.46
   9  -5  -7   48.59    9.09
  -9  -5   7   59.56    4.23
   9   5  -7   59.15    7.11
   9   5  -7   57.39    4.93
  -9   5   7   57.06    4.68
  -9   5   7   57.93    4.67
   7  -5  -7  462.83   32.99
  -7  -5   7  443.55   31.86
  -7  -5   7  434.44   32.41
   7  -5  -7  384.68   35.23
  -7  -5   7  455.58   31.08
   7  -5  -7  441.61   33.93
   7  -5  -7  441.65   32.61
  -7   5   7  416.52   31.25
  -7   5   7  484.23   32.04
   7   5  -7  398.31   32.36
  -7   5   7  421.77   31.31
   7   5  -7  481.37   31.43
   5  -5  -7  173.87   16.90
   5  -5  -7  148.47   17.19
  -5  -5   7  196.59   15.02
   5  -5  -7  201.20   17.10
   5  -5  -7  196.42   16.24
   5   5  -7  214.97   15.96
  -5   5   7  176.19   13.76
  -5   5   7  191.38   13.70
   5   5  -7  204.11   15.07
   5   5  -7  183.89   13.70
  -3  -5   7    6.14    2.51
   3  -5  -7   12.06    4.98
   3  -5  -7    6.35    4.25
   3  -5  -7    7.58    4.32
   3  -5  -7    5.26    2.77
  -3   5   7    7.04    1.16
  -3   5   7    5.75    1.27
   3   5  -7    4.81    2.19
   3   5  -7    8.13    1.17
   3   5  -7    9.18    2.96
  -1  -5   7   43.42    4.89
   1  -5  -7   48.69    5.72
   1  -5  -7   39.31    6.82
   1  -5  -7   39.51    4.29
   1  -5  -7   47.10    7.86
   1  -5  -7   35.11    6.66
  -1   5   7   42.02    3.52
  -1   5   7   44.28    3.68
   1   5  -7   44.27    3.44
  -1   5   7   42.42    3.88
  -1   5   7   44.33    3.83
   1   5  -7   45.65    4.92
   1   5  -7   37.51    5.31
  -1  -5  -7  349.24   26.86
   1  -5   7  348.60   27.50
  -1  -5  -7  382.77   28.12
  -1  -5  -7  441.45   30.31
  -1  -5  -7  360.95   29.58
  -1  -5  -7  369.18   29.91
  -1  -5  -7  382.71   26.86
   1   5   7  387.87   26.73
  -1   5  -7  380.13   30.78
  -1   5  -7  326.73   26.34
  -1   5  -7  398.11   28.31
   1   5   7  344.51   26.61
   1   5   7  376.66   26.76
   1   5   7  399.13   27.03
  -1   5  -7  403.78   27.64
  -3  -5  -7  195.90   14.16
   3  -5   7  182.40   14.65
  -3  -5  -7  188.76   13.62
  -3  -5  -7  196.81   15.08
  -3  -5  -7  228.18   17.53
  -3  -5  -7  150.86   16.44
  -3  -5  -7  167.08   16.81
  -3   5  -7  204.27   14.56
   3   5   7  182.49   13.65
  -3   5  -7  182.26   18.18
   3   5   7  211.37   14.12
   3   5   7  177.25   13.67
  -3   5  -7  211.36   18.91
  -3   5  -7  160.59   14.83
   3   5   7  189.39   13.66
  -5  -5  -7   15.06    5.05
  -5  -5  -7   20.38    3.12
   5  -5   7   27.06    3.68
  -5  -5  -7    9.88    4.84
  -5   5  -7   36.81    8.44
  -5   5  -7   28.71    7.52
  -5   5  -7   23.47    3.66
   5   5   7   23.96    2.20
   5   5   7   22.79    2.20
   5   5   7   22.64    2.49
  -5   5  -7   19.44    2.30
   5   5   7   21.82    2.86
  -7  -5  -7   75.65    6.65
   7  -5   7   67.25    6.56
  -7  -5  -7   53.64    9.60
  -7  -5  -7   52.05    9.73
   7   5   7   67.55    5.49
   7   5   7   65.94    5.31
  -7   5  -7   66.58   11.10
   7   5   7   67.52    5.19
  -7   5  -7   68.55    6.11
  -7   5  -7   68.34   11.48
  -7   5  -7   61.20    5.95
  -9  -5  -7  186.49   20.26
   9  -5   7  232.83   16.82
  -9  -5  -7  232.60   17.03
  -9  -5  -7  182.73   20.16
   9   5   7  232.74   15.83
  -9   5  -7  265.44   22.62
   9   5   7  191.86   15.66
   9   5   7  205.28   15.53
  11  -5   7  175.03   14.01
 -11  -5  -7  169.26   14.59
 -11  -5  -7  165.30   19.38
 -11  -5  -7  156.94   19.35
 -11   5  -7  153.07   20.12
  11   5   7  184.27   13.12
 -11   5  -7  177.77   22.46
  11   5   7  173.83   12.61
  11   5   7  172.38   12.89
 -13  -5  -7    1.53    8.27
 -13  -5  -7   10.61    4.45
  13  -5   7    0.48    2.90
 -13  -5  -7   11.33    9.45
 -13   5  -7  -11.36   11.72
 -13   5  -7  -12.35   10.57
  13   5   7    5.79    1.46
  13   5   7    3.67    1.50
  15  -5   7   43.31    6.98
 -15  -5  -7   56.84   14.40
 -15  -5  -7   42.59    7.72
 -15  -5  -7   23.92   13.57
  15   5   7   55.47    4.92
 -15   5  -7   53.27   15.92
 -15   5  -7   39.47   15.26
  15   5   7   53.66    4.64
 -17  -5  -7   59.43   17.38
 -17  -5  -7   59.00   17.75
  17  -5   7   52.27    8.06
 -17  -5  -7   50.52    9.24
 -17   5  -7   47.55   17.89
  17   5   7   64.98    5.74
  17   5   7   60.33    5.59
 -17   5  -7   76.00   19.49
 -18  -6   7   73.68   11.13
  18  -6  -7   99.48    9.49
  18   6  -7   91.64    8.53
 -18   6   7   89.74    7.87
  18   6  -7   93.98    8.35
  16  -6  -7    5.37    3.47
  16  -6  -7    3.80    4.39
  16  -6  -7    7.98    5.62
 -16  -6   7    5.92    5.09
  16   6  -7    9.68    2.80
 -16   6   7   12.08    2.26
  16   6  -7    7.25    2.41
  14  -6  -7   75.89    7.96
  14  -6  -7   75.75   10.94
 -14  -6   7   70.48    8.47
  14  -6  -7   75.35   10.35
  14   6  -7   62.58    6.40
 -14   6   7   68.83    5.85
 -12  -6   7  109.31   10.29
  12  -6  -7  114.89   14.22
  12  -6  -7  111.85   11.48
  12  -6  -7  113.79   10.26
 -12  -6   7  118.79   10.34
 -12   6   7  104.66    8.56
  12   6  -7   96.93   10.11
  12   6  -7  126.82    9.13
  10  -6  -7   85.25   10.33
  10  -6  -7   94.23    8.98
 -10  -6   7   87.10    8.54
  10  -6  -7   86.52   13.65
 -10  -6   7   98.46    8.46
 -10   6   7   85.94    7.05
  10   6  -7   94.25    7.18
 -10   6   7   83.05    7.01
  10   6  -7   95.07    8.68
   8  -6  -7   90.03   10.66
  -8  -6   7   89.30    7.93
  -8  -6   7   96.07    6.78
   8  -6  -7   76.55   11.91
  -8  -6   7   89.93    8.74
  -8   6   7   93.33    7.21
  -8   6   7   88.98    7.24
   8   6  -7  108.19    9.85
   8   6  -7  101.63    7.33
   6  -6  -7    5.99    5.01
  -6  -6   7    6.36    1.17
   6  -6  -7    2.09    2.10
  -6  -6   7    8.79    2.68
   6  -6  -7    6.15    3.57
   6  -6  -7    3.06    4.48
   6  -6  -7    8.94    5.61
  -6   6   7    5.62    1.14
   6   6  -7    4.48    1.13
   6   6  -7    4.26    1.92
  -6   6   7    5.17    1.08
   4  -6  -7  352.44   33.23
   4  -6  -7  489.24   33.13
   4  -6  -7  410.66   32.50
  -4  -6   7  416.15   30.89
   4  -6  -7  432.79   31.93
   4   6  -7  494.57   31.81
   4   6  -7  375.87   30.64
  -4   6   7  400.46   29.86
   4   6  -7  418.04   29.81
  -4   6   7  408.53   29.76
   2  -6  -7  306.89   24.42
   2  -6  -7  273.55   24.72
  -2  -6   7  306.38   22.41
   2  -6  -7  279.50   22.92
   2  -6  -7  330.57   24.55
  -2   6   7  280.98   21.41
  -2   6   7  312.00   21.32
   2   6  -7  310.54   22.90
   2   6  -7  269.45   22.11
  -2   6   7  309.45   21.48
   0  -6  -7   79.85    9.28
   0  -6  -7   67.30    8.98
   0  -6  -7   64.42    7.24
   0  -6  -7   68.93    8.99
   0  -6   7   71.48    7.02
   0  -6  -7   64.65    5.95
   0   6  -7   79.07    5.32
   0   6   7   69.35    5.67
   0   6  -7   71.81    7.07
   0   6  -7   70.60    6.56
   0   6   7   71.25    5.61
   0   6   7   75.48    5.88
  -2  -6  -7   51.04    8.14
   2  -6   7   67.09    4.44
  -2  -6  -7   59.15    5.22
  -2  -6  -7   69.74    8.47
  -2  -6  -7   59.10    5.22
  -2  -6  -7   43.05    7.72
  -2  -6  -7   60.80    4.83
  -2  -6  -7   62.11    6.27
   2  -6   7   58.05    6.15
   2   6   7   58.76    4.85
   2   6   7   56.21    5.08
  -2   6  -7   60.69    4.39
  -2   6  -7   72.11    5.76
  -2   6  -7   51.28    5.92
   2   6   7   55.94    4.76
  -4  -6  -7  321.38   27.57
   4  -6   7  314.73   25.11
  -4  -6  -7  319.47   27.41
  -4  -6  -7  376.19   24.90
   4   6   7  340.23   24.60
  -4   6  -7  332.55   28.77
   4   6   7  314.86   24.26
   4   6   7  357.87   24.03
  -4   6  -7  359.50   25.06
   4   6   7  337.14   24.27
  -6  -6  -7  120.94    9.55
  -6  -6  -7  105.30   13.13
  -6  -6  -7   99.14   12.00
   6  -6   7   95.12    9.55
  -6   6  -7  132.49    9.03
  -6   6  -7  141.64   15.24
   6   6   7  108.45    8.52
   6   6   7  111.76    8.96
  -6   6  -7  116.55   13.99
   6   6   7  107.70    8.46
  -8  -6  -7   18.31    3.52
  -8  -6  -7   14.08    6.44
  -8  -6  -7   15.91    7.02
   8  -6   7   16.88    3.26
  -8   6  -7   -1.28    7.33
   8   6   7   17.60    1.97
   8   6   7   14.21    2.05
   8   6   7   16.75    2.49
 -10  -6  -7    0.73    6.20
  10  -6   7    2.61    2.53
 -10  -6  -7    9.30    7.23
 -10  -6  -7    7.58    3.60
 -10   6  -7   -3.28    9.54
  10   6   7    4.91    1.13
  10   6   7    7.33    2.19
 -10   6  -7    9.39    8.11
  10   6   7    1.15    1.27
 -12  -6  -7   84.23   14.65
 -12  -6  -7   92.59    9.31
 -12  -6  -7   76.14   14.17
  12  -6   7   73.23    8.30
  12   6   7   77.57    6.43
 -12   6  -7   88.74   16.05
  12   6   7   78.72    6.59
 -12   6  -7  100.33   16.70
 -14  -6  -7  138.25   14.33
 -14  -6  -7  170.78   21.38
 -14  -6  -7  133.07   20.41
  14  -6   7  157.08   13.73
  14   6   7  163.47   11.69
 -14   6  -7  171.45   22.12
  14   6   7  146.99   11.86
 -14   6  -7  183.45   22.98
 -16  -6  -7   25.25    6.51
 -16  -6  -7   15.98   12.83
 -16  -6  -7   23.76   14.19
  16  -6   7   36.97    6.63
  16   6   7   29.52    3.76
 -16   6  -7   25.39   15.15
  16   6   7   31.48    3.87
 -16   6  -7   30.29   16.36
  17  -7  -7   46.92    6.43
  17  -7  -7   64.55    8.79
 -17  -7   7   30.94    7.47
  17   7  -7   52.47    5.58
 -17   7   7   47.36    4.94
  17   7  -7   41.28    5.37
  15  -7  -7   57.09    8.05
  15  -7  -7   84.26   11.02
 -15  -7   7   50.53    7.74
  15  -7  -7   79.46    8.04
  15   7  -7   50.96    6.08
  15   7  -7   65.08    6.05
 -15   7   7   64.84    5.63
 -13  -7   7   42.98    6.17
  13  -7  -7   38.70    8.84
  13  -7  -7   43.26    8.18
  13  -7  -7   32.75    5.51
 -13   7   7   34.18    3.96
  13   7  -7   50.21    4.62
  13   7  -7   43.07    4.39
 -11  -7   7    1.21    2.90
  11  -7  -7   -1.04    4.47
  11  -7  -7    6.92    7.06
 -11  -7   7    0.34    2.78
  11  -7  -7    5.58    3.17
  11   7  -7    3.30    1.69
  11   7  -7    0.24    1.35
  11   7  -7    1.69    2.51
 -11   7   7    1.50    1.31
   9  -7  -7   64.92    9.28
   9  -7  -7   68.54    7.45
  -9  -7   7   65.82    6.68
  -9  -7   7   54.87    6.88
  -9   7   7   59.64    5.27
   9   7  -7   60.48    6.67
   9   7  -7   68.62    4.79
   9   7  -7   64.43    5.47
   9   7  -7   62.64    5.27
  -9   7   7   64.52    5.34
  -7  -7   7  144.14    9.92
  -7  -7   7  128.38   11.80
   7  -7  -7  122.03   12.94
  -7  -7   7  152.01   11.23
   7  -7  -7  148.40   12.97
   7  -7  -7  139.47   13.46
   7  -7  -7  131.99   14.63
  -7   7   7  121.23   10.57
   7   7  -7  145.57   10.22
   7   7  -7  137.42   10.30
  -5  -7   7  144.91   12.39
   5  -7  -7  131.97   15.16
   5  -7  -7  155.27   13.66
   5  -7  -7  178.64   14.96
   5  -7  -7  125.45   14.19
   5   7  -7  155.23   10.81
  -5   7   7  144.11   11.02
   5   7  -7  128.81   10.89
   5   7  -7  184.24   12.31
   3  -7  -7    3.79    4.29
  -3  -7   7    3.74    2.37
   3  -7  -7    2.87    3.48
   3  -7  -7    5.01    3.05
   3  -7  -7   -0.61    4.21
  -3   7   7    2.83    1.24
   3   7  -7    3.97    2.15
   3   7  -7    7.66    2.36
  -3   7   7    4.86    1.12
   3   7  -7    4.71    0.99
  -3   7   7    6.05    1.26
   3   7  -7    6.76    0.85
   1  -7  -7  145.23   12.23
   1  -7  -7  146.02   14.23
   1  -7  -7  131.59   10.76
   1  -7  -7  148.44   13.94
   1  -7  -7  132.76   13.48
  -1  -7   7  132.40   11.69
   1   7  -7  156.81   11.87
   1   7  -7  150.73   10.18
  -1   7   7  148.41   10.60
  -1   7   7  129.30   10.39
  -1   7   7  127.95   10.50
  -1  -7  -7  218.43   18.76
  -1  -7  -7  224.84   19.54
  -1  -7  -7  216.35   17.11
   1  -7   7  201.32   16.62
  -1  -7  -7  230.01   15.65
  -1  -7  -7  198.60   15.50
  -1  -7  -7  171.82   18.06
   1   7   7  181.08   15.45
  -1   7  -7  232.99   16.65
  -1   7  -7  240.30   15.20
   1   7   7  218.82   15.62
   3  -7   7  112.74   10.16
  -3  -7  -7   91.69   12.05
  -3  -7  -7  120.77   12.50
  -3  -7  -7  128.09    9.52
   3   7   7  112.35    9.04
  -3   7  -7  124.20    9.47
   3   7   7  125.24    9.36
   3   7   7  121.32    9.09
  -3   7  -7  127.09    8.59
  -5  -7  -7    3.24    5.22
  -5  -7  -7    3.36    4.53
  -5  -7  -7    3.09    1.99
   5  -7   7    0.53    2.20
  -5   7  -7    3.77    6.05
   5   7   7    1.26    0.87
   5   7   7    2.51    1.33
   5   7   7    0.88    0.88
  -5   7  -7    2.34    1.41
  -7  -7  -7   81.71   11.97
  -7  -7  -7   53.56   10.45
   7  -7   7   56.77    6.21
  -7  -7  -7   54.29    5.90
   7   7   7   52.42    4.57
   7   7   7   50.98    4.76
   7   7   7   61.77    5.17
  -7   7  -7   60.05   10.56
  -9  -7  -7  130.61   12.88
  -9  -7  -7  103.06   14.84
   9  -7   7  142.49   11.95
   9   7   7  135.26   10.62
   9   7   7  144.33   10.99
  -9   7  -7  126.99   16.68
   9   7   7  158.38   10.61
 -11  -7  -7   59.73   11.97
 -11  -7  -7   51.38    7.17
  11  -7   7   53.80    6.90
 -11  -7  -7   62.69   11.41
  11   7   7   54.37    4.94
 -11   7  -7   50.90   12.92
  11   7   7   51.89    4.78
  11   7   7   62.17    5.99
 -13  -7  -7   10.70    8.97
 -13  -7  -7    5.21    4.37
  13  -7   7   10.50    3.83
 -13  -7  -7    7.82    8.35
  13   7   7    4.16    3.63
  13   7   7    5.22    1.71
 -13   7  -7    9.97   11.40
  13   7   7    0.67    1.55
 -15  -7  -7   11.11   12.54
 -15  -7  -7   15.46    5.98
 -15  -7  -7    8.05   11.38
  15  -7   7   23.82    5.50
  15   7   7   20.53    2.84
 -15   7  -7   19.90   14.41
  15   7   7   26.02    5.15
  15   7   7   25.15    3.25
  16  -8  -7    2.19    3.54
  16  -8  -7   -0.77    6.14
 -16  -8   7   -9.85    4.87
 -16   8   7    0.24    1.88
  16   8  -7    0.37    2.44
  16   8  -7    7.02    2.51
  14  -8  -7   24.67    4.99
  14  -8  -7   20.60    7.47
 -14  -8   7   23.40    5.47
  14  -8  -7   38.46    6.89
  14   8  -7   20.44    3.28
 -14   8   7   24.60    3.04
  14   8  -7   19.35    3.07
  12  -8  -7   65.82    8.13
  12  -8  -7   83.65   12.64
  12  -8  -7   69.38   10.34
 -12  -8   7   81.74    8.34
 -12  -8   7   83.50    8.29
  12   8  -7   64.83    6.27
  12   8  -7   72.48    6.44
  10  -8  -7   68.78    9.52
 -10  -8   7   73.37    8.03
 -10  -8   7   62.76    7.26
  10  -8  -7   70.27    8.10
  10  -8  -7   53.63   11.68
 -10   8   7   69.23    5.87
  10   8  -7   78.75    5.86
 -10   8   7   58.85    5.73
  10   8  -7   82.48    6.14
   8  -8  -7   -3.63    7.63
  -8  -8   7    3.37    2.34
   8  -8  -7    8.52    3.38
  -8  -8   7    4.59    3.19
   8  -8  -7    3.79    4.39
  -8   8   7    3.77    1.41
   8   8  -7    2.42    1.15
  -8   8   7    2.40    1.18
   8   8  -7    2.74    2.49
   8   8  -7    2.57    1.30
   6  -8  -7   14.22    5.84
   6  -8  -7   13.30    4.64
   6  -8  -7    8.94    6.46
  -6  -8   7   13.42    1.61
  -6  -8   7    9.52    3.13
   6   8  -7   13.43    1.59
   6   8  -7   12.18    1.74
   6   8  -7    8.99    3.06
  -6   8   7   11.54    1.91
  -6   8   7   11.61    1.84
   4  -8  -7   57.28    7.18
  -4  -8   7   44.15    5.92
   4  -8  -7   45.94    8.39
   4  -8  -7   71.59    9.15
  -4   8   7   59.89    5.02
   4   8  -7   55.06    5.32
   4   8  -7   44.22    4.12
  -4   8   7   50.79    4.35
  -4   8   7   53.81    4.47
   2  -8  -7  121.40   12.50
   2  -8  -7  117.42   12.24
  -2  -8   7  113.17   10.08
   2  -8  -7  122.99   10.69
  -2   8   7  125.13    8.70
  -2   8   7  123.44    8.90
   2   8  -7   96.20    9.23
   2   8  -7  106.33    8.39
   0  -8  -7    2.43    4.34
   0  -8  -7   24.92    5.98
   0  -8  -7   21.76    2.33
   0  -8  -7   18.24    6.49
   0  -8  -7   13.94    3.34
   0  -8  -7   20.32    2.47
   0  -8   7   12.00    3.28
   0   8   7   13.59    1.97
   0   8   7   18.60    2.23
   0   8  -7   17.63    1.71
   0   8   7   16.21    1.97
   0   8  -7   10.78    2.33
  -2  -8  -7   65.87    9.26
  -2  -8  -7   84.78    8.10
  -2  -8  -7   66.82    9.43
   2  -8   7   75.68    7.66
  -2  -8  -7   88.63    6.64
  -2  -8  -7   92.92   11.99
  -2  -8  -7   74.55    5.81
  -2   8  -7   85.63    5.87
   2   8   7   84.08    6.31
   2   8   7   72.70    6.26
  -2   8  -7   77.96    6.63
   2   8   7   79.29    6.43
  -4  -8  -7   50.70    4.78
  -4  -8  -7   35.64    8.08
   4  -8   7   47.20    5.96
  -4  -8  -7   41.06    8.54
   4   8   7   50.49    4.15
   4   8   7   40.72    4.17
  -4   8  -7   51.29    4.49
   4   8   7   47.24    4.36
  -6  -8  -7   72.08   12.02
  -6  -8  -7   84.43    7.38
  -6  -8  -7   63.09   11.59
   6  -8   7   86.21    8.05
   6   8   7   77.77    6.47
   6   8   7   82.55    6.67
  -8  -8  -7   26.63    8.45
   8  -8   7    9.04    3.38
  -8  -8  -7   13.89    7.17
  -8  -8  -7   14.74    3.32
   8   8   7    9.90    1.81
   8   8   7   10.35    1.88
   8   8   7   13.80    2.39
 -10  -8  -7   24.60    8.47
 -10  -8  -7   27.08    5.10
  10  -8   7   20.53    4.31
 -10  -8  -7   40.62    9.99
  10   8   7   20.54    2.91
  10   8   7   22.79    3.39
  10   8   7   25.02    3.01
 -10   8  -7   30.75   10.52
  12  -8   7   34.12    5.87
 -12  -8  -7   33.25   10.50
 -12  -8  -7   30.04   10.61
 -12  -8  -7   37.52    6.63
  12   8   7   37.97    4.84
  12   8   7   34.31    3.91
 -12   8  -7   44.52   12.79
  12   8   7   34.95    3.99
 -14  -8  -7   32.82   12.64
 -14  -8  -7   44.43   13.69
  14  -8   7   52.98    7.18
 -14  -8  -7   55.26    8.04
  14   8   7   40.60    5.61
  14   8   7   39.37    4.71
  14   8   7   36.98    4.42
  15  -9  -7    7.47    7.35
  15  -9  -7   11.68    4.26
 -15  -9   7    4.12    5.01
  15   9  -7   11.56    2.66
  15   9  -7   13.79    3.05
 -15   9   7   11.49    2.40
  13  -9  -7   50.27    8.37
 -13  -9   7   43.32    6.18
 -13  -9   7   44.63    6.80
  13  -9  -7   34.15    9.38
  13  -9  -7   37.94    5.95
 -13   9   7   42.06    4.31
  13   9  -7   49.05    4.85
  13   9  -7   42.01    4.85
 -11  -9   7   -2.52    3.44
  11  -9  -7    2.02    3.20
  11  -9  -7   -6.48    8.01
 -11  -9   7   -1.93    3.01
  11  -9  -7    2.19    7.18
 -11   9   7    0.95    1.45
 -11   9   7    0.33    1.36
  11   9  -7    3.13    1.82
  11   9  -7   -0.18    1.56
   9  -9  -7   58.08   12.36
   9  -9  -7   62.06    9.40
  -9  -9   7   59.30    7.00
  -9  -9   7   79.56    7.89
   9  -9  -7   57.99    7.73
  -9   9   7   68.08    5.46
   9   9  -7   71.78    5.61
   9   9  -7   57.79    5.27
  -9   9   7   62.55    5.48
   7  -9  -7   33.41    5.11
  -7  -9   7   22.71    3.90
   7  -9  -7   24.96    5.70
   7  -9  -7   18.89    6.70
   7  -9  -7   22.00    6.58
   7  -9  -7    8.34    8.42
  -7  -9   7   25.25    4.62
  -7   9   7   31.21    3.09
   7   9  -7   31.79    2.82
   7   9  -7   25.17    3.05
  -7   9   7   29.68    3.11
   5  -9  -7    0.29    6.07
   5  -9  -7    6.56    5.51
   5  -9  -7    8.02    3.72
   5  -9  -7    1.50    6.60
  -5  -9   7    4.93    3.01
  -5   9   7    3.64    1.31
   5   9  -7    5.96    2.59
   5   9  -7    4.45    1.04
  -5   9   7    6.75    1.53
   5   9  -7    4.89    1.08
  -3  -9   7    2.01    2.67
   3  -9  -7    5.03    4.84
   3  -9  -7    6.94    5.84
   3  -9  -7   -2.10    2.83
   3  -9  -7    6.46    5.26
  -3   9   7    3.67    1.34
   3   9  -7    0.92    0.89
  -3   9   7    1.10    1.13
  -3   9   7    3.33    1.68
   3   9  -7    2.18    1.63
   1  -9  -7    5.85    2.97
   1  -9  -7    4.57    4.24
   1  -9  -7    2.01    2.11
  -1  -9   7    1.35    2.61
   1  -9  -7    3.96    5.26
   1  -9  -7    2.57    4.81
  -1   9   7    2.11    1.48
  -1   9   7    2.65    1.14
   1   9  -7    3.80    1.83
  -1   9   7   -0.02    1.09
  -1  -9  -7   24.88    2.97
   1  -9   7   23.09    4.35
  -1  -9  -7   22.74    6.47
  -1  -9  -7   21.03    5.41
  -1  -9  -7   29.76    6.23
  -1  -9  -7   21.32    2.67
  -1  -9  -7   27.07    7.37
  -1   9  -7   25.22    2.31
   1   9   7   23.66    2.70
   1   9   7   22.20    2.60
   1   9   7   26.43    3.08
  -3  -9  -7   23.26    6.77
  -3  -9  -7   42.62    4.09
   3  -9   7   36.18    5.38
  -3  -9  -7   29.26    7.60
   3   9   7   32.00    3.60
  -3   9  -7   37.89    3.02
   3   9   7   32.85    3.50
   3   9   7   36.86    3.54
   5  -9   7   45.79    6.20
  -5  -9  -7   56.20    5.20
  -5  -9  -7   36.37    9.29
  -5  -9  -7   44.84    9.56
   5   9   7   42.46    4.23
   5   9   7   44.72    4.38
   5   9   7   50.06    4.39
   7  -9   7   22.46    4.25
  -7  -9  -7   25.98    4.00
  -7  -9  -7   27.99    8.60
  -7  -9  -7   12.67    8.70
   7   9   7   16.72    2.55
   7   9   7   21.09    2.76
   7   9   7   20.57    2.59
  -9  -9  -7   57.39   12.20
  -9  -9  -7   64.06    7.53
  -9  -9  -7   68.97   12.20
   9  -9   7   76.33    7.85
   9   9   7   65.89    5.76
   9   9   7   62.80    5.81
   9   9   7   72.63    6.29
 -11  -9  -7   14.78    5.03
 -11  -9  -7   11.92    9.52
 -11  -9  -7   -5.47    8.18
  11  -9   7   12.59    4.34
  11   9   7   10.30    2.15
  11   9   7    9.63    3.72
  11   9   7   14.55    2.38
 -13  -9  -7    2.66    9.89
 -13  -9  -7    3.90    5.23
  13  -9   7   10.41    4.81
 -13  -9  -7   -3.71    9.11
  13   9   7    1.99    3.65
  13   9   7    2.29    2.03
  13   9   7    0.63    1.85
 -15  -9  -7   -4.59   10.79
 -15  -9  -7   -8.90   11.02
  15  -9   7    2.53    5.86
 -15  -9  -7    6.98    5.72
  15   9   7    9.47    2.55
  15   9   7    7.81    2.50
  14 -10  -7   -5.11    7.93
  14 -10  -7    7.07    4.31
 -14 -10   7    1.49    4.85
 -14  10   7   -0.47    1.84
  14  10  -7    3.45    2.62
  14  10  -7    6.22    2.20
  12 -10  -7    9.74    4.12
 -12 -10   7   13.88    4.59
 -12 -10   7   16.84    4.71
  12 -10  -7   20.91    7.89
  12 -10  -7   23.01    9.91
  12  10  -7   13.47    2.56
  12  10  -7    8.56    2.18
 -12  10   7   10.41    2.22
 -10 -10   7   -0.13    2.84
  10 -10  -7   -3.71    7.28
  10 -10  -7    3.35    8.59
 -10 -10   7    1.89    3.73
  10 -10  -7    1.38    3.75
  10  10  -7    2.45    1.53
 -10  10   7    2.77    1.47
 -10  10   7    4.57    1.67
  10  10  -7   -1.88    1.68
  -8 -10   7    0.76    2.43
   8 -10  -7   -6.93    3.34
   8 -10  -7    0.86    8.12
  -8 -10   7    2.43    3.65
   8  10  -7    2.40    1.31
  -8  10   7    3.19    1.46
  -8  10   7    2.18    1.33
   8  10  -7    2.86    1.48
   6 -10  -7    9.38    6.48
  -6 -10   7   -3.88    3.10
   6 -10  -7   -0.38    6.73
   6 -10  -7   -5.12    6.89
  -6 -10   7   -3.07    2.31
  -6  10   7   -0.79    1.20
   6  10  -7    1.60    1.37
  -6  10   7   -0.01    1.20
   6  10  -7    1.60    1.12
   4 -10  -7   -6.96    5.76
   4 -10  -7   -0.14    5.58
   4 -10  -7    3.52    5.38
   4 -10  -7   -0.66    4.76
  -4 -10   7    3.94    3.44
  -4  10   7    0.91    1.25
   4  10  -7    1.50    1.03
  -4  10   7    0.28    1.19
  -4  10   7   -0.08    1.60
   2 -10  -7   17.50    6.05
  -2 -10   7   19.77    3.99
   2 -10  -7   17.28    6.37
   2 -10  -7   15.35    7.02
   2 -10  -7   18.70    5.20
  -2  10   7   23.33    2.68
  -2  10   7   18.23    2.66
  -2  10   7   18.13    2.40
   2  10  -7   17.68    2.10
   0 -10   7    1.59    3.03
   0 -10  -7   -1.29    3.07
   0 -10  -7   -0.31    5.54
   0 -10  -7    8.00    5.21
   0 -10  -7    1.82    1.58
   0  10   7    0.69    1.41
   0  10  -7    0.41    0.94
   0  10   7   -0.97    1.24
   0  10   7   -0.82    1.28
   2 -10   7   15.37    3.76
  -2 -10  -7    9.96    2.27
  -2 -10  -7   12.33    6.39
   2  10   7   10.74    1.80
   2  10   7    6.95    1.91
  -2  10  -7   15.36    1.65
  -4 -10  -7    3.44    6.66
  -4 -10  -7    2.25    2.05
  -4 -10  -7    6.85    6.71
   4 -10   7    1.88    3.21
   4  10   7    1.82    1.49
   4  10   7    0.64    1.36
   4  10   7    3.99    1.68
  -6 -10  -7   -5.84    6.23
   6 -10   7   -2.35    2.78
  -6 -10  -7   -5.44    6.09
  -6 -10  -7   -0.05    2.26
   6  10   7   -0.52    1.43
   6  10   7    1.53    1.77
   6  10   7    0.81    1.33
   8 -10   7   -0.36    3.42
  -8 -10  -7    1.32    3.70
  -8 -10  -7   -7.82    7.01
  -8 -10  -7   -6.49    7.43
   8  10   7   -0.88    1.38
   8  10   7    0.38    1.48
 -10 -10  -7    0.62    4.18
  10 -10   7   -0.40    3.62
 -10 -10  -7    5.07    8.44
 -10 -10  -7    8.87    8.50
  10  10   7    0.52    1.51
  10  10   7   -0.76    1.70
  10  10   7   -0.68    2.61
 -12 -10  -7    3.86    4.92
 -12 -10  -7   -5.74    9.48
  12 -10   7   10.35    4.84
 -12 -10  -7   -1.09    9.53
  12  10   7    3.39    1.94
  12  10   7    3.88    1.94
  12  10   7   -0.45    3.13
 -14 -10  -7    8.23    6.27
  14 -10   7   -2.68    5.25
 -14 -10  -7   -6.84   11.55
 -14 -10  -7   10.96   11.99
  14  10   7    3.32    2.39
  14  10   7    6.72    2.48
  13 -11  -7   13.63    4.53
 -13 -11   7    7.63    5.00
  13 -11  -7    8.44    9.78
 -13  11   7    9.57    2.23
  13  11  -7   11.54    2.90
  13  11  -7   10.36    2.61
  11 -11  -7   13.03    4.50
 -11 -11   7   15.63    5.07
 -11 -11   7   15.66    4.34
  11 -11  -7    7.01   10.52
  11 -11  -7   18.01    8.77
 -11  11   7   15.36    2.23
  11  11  -7   11.14    2.58
 -11  11   7    7.47    2.13
  11  11  -7    5.44    2.20
  -9 -11   7   13.20    4.00
   9 -11  -7   18.98    8.41
   9 -11  -7   12.15    9.86
  -9 -11   7    8.14    4.33
   9 -11  -7   13.14    4.32
  -9  11   7   15.36    2.39
   9  11  -7   15.39    2.43
   9  11  -7   10.50    2.13
  -9  11   7   14.56    2.22
   7 -11  -7   -3.74    7.59
   7 -11  -7   10.28    6.65
   7 -11  -7    9.12    3.87
  -7 -11   7    1.45    2.79
  -7 -11   7   11.34    4.23
  -7  11   7    3.47    1.40
   7  11  -7    1.01    1.50
  -7  11   7    4.29    1.56
   5 -11  -7    5.94    7.36
   5 -11  -7    3.29    5.10
   5 -11  -7   -8.14    6.71
  -5 -11   7   -4.47    3.18
   5 -11  -7    5.24    6.75
   5  11  -7    2.07    1.41
  -5  11   7    2.50    1.39
  -5  11   7    2.24    1.98
  -5  11   7    0.70    1.37
  -3 -11   7    3.84    3.46
   3 -11  -7    5.82    5.85
   3 -11  -7    2.50    5.80
   3 -11  -7    1.20    4.20
   3 -11  -7   -3.29    6.64
  -3  11   7   -2.09    1.73
  -3  11   7   -0.41    1.47
   3  11  -7   -0.25    1.04
  -3  11   7    1.31    1.25
   1 -11  -7   11.02    4.53
  -1 -11   7    9.99    3.61
   1 -11  -7    1.34    6.31
   1 -11  -7   11.45    6.77
   1 -11  -7   15.13    6.44
  -1  11   7   10.31    2.24
   1  11  -7    9.21    1.58
  -1  11   7    8.59    1.84
  -1  11   7    9.39    1.82
  -1 -11  -7   20.38    7.85
  -1 -11  -7    4.90    6.64
  -1 -11  -7   17.19    2.57
  -1 -11  -7   18.32    5.04
  -1 -11  -7   19.55    7.69
   1 -11   7   12.24    3.82
   1  11   7   12.55    2.43
   1  11   7   16.48    2.38
  -1  11  -7   17.15    2.05
   1  11   7   17.26    2.41
  -3 -11  -7   -0.08    6.14
   3 -11   7    1.63    3.19
  -3 -11  -7    1.31    6.37
  -3 -11  -7   -0.27    2.24
   3  11   7    1.04    1.49
   3  11   7    2.98    1.65
  -3  11  -7    0.25    1.29
   3  11   7    1.59    1.51
  -5 -11  -7    6.58    6.32
  -5 -11  -7    8.06    2.87
   5 -11   7   13.23    4.12
  -5 -11  -7    0.23    6.63
   5  11   7    3.36    1.76
   5  11   7    6.57    1.91
   5  11   7    5.54    2.00
  -7 -11  -7    4.78    4.05
  -7 -11  -7    7.70    8.32
  -7 -11  -7    5.00    7.87
   7 -11   7    5.84    3.54
   7  11   7    7.22    1.89
   7  11   7    2.36    2.13
   7  11   7    5.24    1.81
  -9 -11  -7   22.30    9.98
  -9 -11  -7   13.75    9.43
  -9 -11  -7   23.94    5.41
   9 -11   7   16.96    5.44
   9  11   7   20.96    3.01
   9  11   7   16.86    2.85
   9  11   7   16.90    3.09
  11 -11   7   -6.51    4.00
 -11 -11  -7    2.09    5.06
 -11 -11  -7   42.74   12.17
 -11 -11  -7   -0.23    9.42
  11  11   7    3.63    2.07
  11  11   7    1.38    2.96
  11  11   7   -0.82    1.75
 -13 -11  -7   -0.54   11.61
 -13 -11  -7    3.11    5.96
 -13 -11  -7   17.16   11.30
  13 -11   7    6.76    5.72
  13  11   7   -2.45    2.13
  13  11   7   -1.97    2.21
 -12 -12   7   31.17    6.03
  12 -12  -7   10.00   11.69
  12 -12  -7   26.06    5.89
 -12 -12   7   18.83    6.18
  12  12  -7   31.46    3.82
  12  12  -7   30.01    3.85
 -12  12   7   26.46    3.57
  10 -12  -7   73.24   11.96
 -10 -12   7   60.62    8.20
  10 -12  -7   57.11   14.34
  10 -12  -7   64.36    8.27
 -10 -12   7   65.60    8.09
  10  12  -7   55.30    6.02
 -10  12   7   73.58    5.83
  10  12  -7   62.58    6.05
 -10  12   7   66.03    5.86
  -8 -12   7   -1.97    2.71
   8 -12  -7    1.72    4.00
   8 -12  -7    2.43    7.46
  -8 -12   7   -5.15    4.43
   8 -12  -7    2.93   10.48
   8  12  -7   -0.26    1.61
  -8  12   7    2.28    1.45
  -8  12   7   -0.63    1.64
   6 -12  -7   -3.03    7.56
   6 -12  -7   -0.73    8.52
  -6 -12   7    3.70    3.00
   6 -12  -7   -1.98    3.58
   6 -12  -7   13.15    6.51
  -6 -12   7    7.45    4.47
  -6  12   7    4.73    1.87
  -6  12   7    4.90    1.60
   6  12  -7    1.45    1.58
   4 -12  -7    7.54    8.24
   4 -12  -7   20.66    7.69
  -4 -12   7   24.48    5.41
   4 -12  -7   22.56    7.50
   4 -12  -7   16.01    5.95
   4  12  -7   15.31    2.35
  -4  12   7   15.75    2.37
  -4  12   7   19.30    3.19
  -4  12   7   18.36    2.55
   2 -12  -7   46.51   10.24
   2 -12  -7   41.47   10.31
   2 -12  -7   34.26    7.02
  -2 -12   7   39.02    6.33
   2 -12  -7   43.58    8.57
   2  12  -7   35.63    3.75
  -2  12   7   35.97    4.42
  -2  12   7   40.75    3.96
  -2  12   7   34.86    3.94
   0 -12  -7    1.93    6.42
   0 -12  -7    4.51    7.82
   0 -12  -7   -2.71    3.94
   0 -12  -7    0.30    6.67
   0 -12   7    7.55    3.93
   0  12   7    1.90    1.54
   0  12   7    4.26    1.90
   0  12  -7    1.77    1.34
   0  12   7    1.50    1.57
  -2 -12  -7   -1.46    2.21
  -2 -12  -7    3.62    7.17
   2 -12   7    1.58    3.67
  -2 -12  -7   -1.55    6.81
  -2 -12  -7   -2.37    6.96
   2  12   7    0.50    1.55
  -2  12  -7   -1.61    1.46
   2  12   7    3.44    1.81
   2  12   7    0.01    1.49
   4 -12   7    9.72    4.29
  -4 -12  -7   12.85    3.08
  -4 -12  -7   -3.62    6.73
  -4 -12  -7   14.34    8.01
   4  12   7    6.37    1.93
   4  12   7    4.20    1.86
   4  12   7    2.95    1.79
  -6 -12  -7   79.56    8.47
  -6 -12  -7   64.07   13.41
   6 -12   7   79.87    9.56
  -6 -12  -7   67.58   13.46
   6  12   7   78.89    6.93
   6  12   7   92.75    7.09
   6  12   7   76.14    6.77
  -8 -12  -7   28.60   10.57
  -8 -12  -7   37.93   11.49
  -8 -12  -7   27.03    5.23
   8 -12   7   19.57    6.70
   8  12   7   19.77    3.10
   8  12   7   24.71    3.13
   8  12   7   16.93    2.87
 -10 -12  -7   27.29   11.32
  10 -12   7   33.92    6.73
 -10 -12  -7   35.32   12.17
 -10 -12  -7   21.80    6.44
  10  12   7   26.84    3.70
  10  12   7   23.21    3.43
 -12 -12  -7   16.18   11.31
 -12 -12  -7   18.07    6.87
 -12 -12  -7   34.26   12.86
  12  12   7   21.06    3.41
  12  12   7   18.23    3.34
  11 -13  -7   -0.83   12.49
 -11 -13   7   -1.10    4.20
  11 -13  -7   -2.28    4.30
 -11 -13   7    1.41    5.69
 -11  13   7   -0.55    1.76
  11  13  -7    0.30    2.17
  -9 -13   7   28.33    5.49
  -9 -13   7   35.97    6.75
   9 -13  -7   15.66    9.71
   9 -13  -7   17.93    5.04
   9 -13  -7   12.73   12.40
  -9  13   7   29.92    3.57
   9  13  -7   21.36    3.10
  -9  13   7   17.64    2.99
  -7 -13   7   31.08    6.54
   7 -13  -7   32.32    6.04
   7 -13  -7   25.67    8.59
  -7 -13   7   18.66    4.68
   7 -13  -7    8.16   10.60
  -7  13   7   19.95    3.12
  -7  13   7   26.17    3.23
   7  13  -7   20.68    3.02
   5 -13  -7   39.39   12.00
  -5 -13   7   47.11    6.87
   5 -13  -7   63.79   11.42
  -5 -13   7   58.98    7.99
   5 -13  -7   45.84    9.25
  -5  13   7   52.18    4.96
   5  13  -7   59.23    5.20
  -5  13   7   54.68    5.19
  -5  13   7   51.39    6.03
   3 -13  -7    5.07    8.29
   3 -13  -7    5.31    8.31
   3 -13  -7    8.40    9.50
   3 -13  -7    0.00    5.29
  -3 -13   7    1.19    4.58
  -3  13   7    5.81    1.93
  -3  13   7    5.32    1.78
  -3  13   7    7.03    2.51
   3  13  -7    5.65    1.93
   1 -13  -7   72.70   12.35
  -1 -13   7   63.49    8.15
   1 -13  -7   60.44    9.00
   1 -13  -7   52.92   11.35
   1 -13  -7   58.84   11.90
  -1  13   7   67.87    5.75
  -1  13   7   57.36    6.04
  -1  13   7   62.93    5.59
   1 -13   7  148.72   14.01
  -1 -13  -7  114.57   17.54
  -1 -13  -7  126.06   17.57
  -1 -13  -7  126.40   14.13
  -1 -13  -7  139.40   18.69
  -1  13  -7  165.29   10.92
   1  13   7  134.00   10.96
   1  13   7  141.98   11.45
   1  13   7  153.44   11.24
   3 -13   7   19.30    5.55
  -3 -13  -7   11.00    8.63
  -3 -13  -7   17.30    8.69
  -3 -13  -7   13.59    3.24
   3  13   7   18.91    2.55
   3  13   7   10.33    2.41
   3  13   7    8.85    2.60
  -5 -13  -7    5.72    8.29
  -5 -13  -7   15.62    8.61
   5 -13   7   11.77    4.85
  -5 -13  -7    5.37    4.26
   5  13   7    7.14    2.23
   5  13   7    1.82    1.95
   5  13   7    5.12    2.06
  -7 -13  -7   33.56   11.74
  -7 -13  -7   30.70    5.92
  -7 -13  -7   24.92   10.32
   7 -13   7   24.25    5.79
   7  13   7   29.75    3.94
   7  13   7   26.66    3.52
   7  13   7   33.20    3.93
  -9 -13  -7   46.04   13.49
   9 -13   7   22.51    6.16
  -9 -13  -7   28.07   12.51
  -9 -13  -7   25.05    6.23
   9  13   7   16.77    3.25
   9  13   7   17.64    3.38
   8 -14  -7   29.95   11.08
   8 -14  -7   30.47    6.41
   8 -14  -7   23.93   13.77
  -8 -14   7   33.89    6.38
  -8 -14   7   32.97    7.69
   8  14  -7   41.94    4.81
  -8  14   7   37.31    4.47
  -8  14   7   45.73    4.53
   6 -14  -7   16.87    8.21
  -6 -14   7   11.90    3.97
  -6 -14   7    8.78    6.09
   6 -14  -7   14.11   10.96
   6 -14  -7    4.02    4.87
  -6  14   7    8.95    2.41
  -6  14   7    8.11    2.06
   6  14  -7    9.64    2.49
  -4 -14   7   71.12    8.45
   4 -14  -7   74.80   14.79
   4 -14  -7   63.76   12.09
   4 -14  -7   55.17   13.81
   4 -14  -7   45.64    9.88
  -4 -14   7   86.76    9.73
  -4  14   7   83.76    7.31
  -4  14   7   69.97    6.36
  -4  14   7   65.60    6.11
   4  14  -7   73.45    6.39
   2 -14  -7   88.85   16.09
   2 -14  -7  128.39   17.07
  -2 -14   7  116.48   12.71
   2 -14  -7  116.84   13.47
   2 -14  -7  102.76   15.81
  -2  14   7  113.44    8.89
   2  14  -7  113.32    9.08
  -2  14   7  113.61    9.10
  -2  14   7  107.05    9.60
   0 -14   7   39.15    7.15
   0 -14  -7   52.84   12.25
   0 -14  -7   42.89   11.59
   0 -14  -7   26.09   10.32
   0 -14  -7   47.62    8.07
   0  14   7   41.55    4.37
   0  14   7   42.41    4.11
   0  14   7   28.93    4.22
   0  14  -7   29.24    3.90
   2 -14   7    1.69    5.12
  -2 -14  -7   -4.23    9.20
  -2 -14  -7   -0.27    4.92
  -2 -14  -7   12.14    9.55
  -2 -14  -7   -1.11    8.80
   2  14   7    9.45    2.14
   2  14   7    6.28    2.21
   2  14   7    0.82    2.27
  -4 -14  -7   85.13   14.33
  -4 -14  -7   89.02   14.95
   4  14   7   76.94    6.86
   4  14   7   80.82    7.18
  -6 -14  -7   76.83    9.74
  -6 -14  -7   78.45   14.40
   6 -14   7   77.49   10.27
  -6 -14  -7  107.33   17.57
   6  14   7   74.61    7.42
   6  14   7   91.63    7.48
   6  14   7   81.87    7.20
  -8 -14  -7   30.87    6.90
  -8 -14  -7   37.80   12.33
  -8 -14  -7   32.31   12.39
   8 -14   7   36.59    7.20
   8  14   7   29.03    4.01
   8  14   7   30.73    4.17
   7 -15  -7   84.90   14.52
   7 -15  -7   81.85   17.93
   7 -15  -7   95.59   11.88
  -7 -15   7   84.25   11.43
  -7 -15   7  107.97   11.07
   7  15  -7  101.00    8.64
  -7  15   7  103.53    8.35
  -7  15   7   97.37    8.46
  -5 -15   7   67.70    8.68
   5 -15  -7   44.45   10.55
  -5 -15   7   56.62    9.31
   5 -15  -7   47.36   14.00
   5 -15  -7   64.27    8.63
  -5  15   7   62.96    5.98
  -5  15   7   61.86    7.00
  -5  15   7   54.59    5.58
   5  15  -7   56.48    6.08
   3 -15  -7  -16.18   12.25
   3 -15  -7   -8.95    6.72
   3 -15  -7    6.49   11.92
   3 -15  -7    0.14    9.53
  -3 -15   7    7.11    6.74
  -3  15   7   -4.75    2.73
   3  15  -7   -0.53    2.37
  -3  15   7    2.43    2.12
  -3  15   7    1.80    1.91
  -1 -15   7   51.15    8.13
   1 -15  -7   40.16   12.31
   1 -15  -7   30.73   12.55
   1 -15  -7   45.68    8.90
   1 -15  -7   31.52   13.07
   1  15  -7   34.65    4.51
  -1  15   7   42.70    5.46
  -1  15   7   42.87    4.90
  -1  15   7   46.73    4.68
  -1 -15  -7  130.83   19.33
  -1 -15  -7  136.66   14.92
  -1 -15  -7   99.50   17.51
  -1 -15  -7  133.36   20.12
   1  15   7  135.16   10.17
   1  15   7  124.29   10.73
   1  15   7  128.56   10.47
  -3 -15  -7   34.41   13.14
  -3 -15  -7   46.06    9.07
   3 -15   7   76.98    9.95
  -3 -15  -7   66.42   13.74
  -3 -15  -7   39.28   13.27
   3  15   7   78.48    6.27
   3  15   7   66.20    6.91
   3  15   7   84.09    6.62
  -5 -15  -7    2.24   10.61
   5 -15   7   -4.89    6.48
  -5 -15  -7   17.92   11.35
   5  15   7   -0.32    2.39
   5  15   7    0.82    2.51
   5  15   7    2.26    2.31
   0 -16  -7   28.55    8.87
   0 -16  -7   46.33   14.53
   0 -16  -7   26.52   12.79
   0 -16  -7   52.62   13.64
   0  16   7   28.16    4.37
   0  16   7   30.97    3.89
 -18   0   8   30.48    7.84
  18   0  -8   41.74    6.98
  18   0  -8   46.23    5.92
  16   0  -8    7.21    3.04
  16   0  -8    2.53    3.98
 -16   0   8    2.65    1.56
  16   0  -8    0.38    4.66
 -16   0   8    2.07    4.85
 -14   0   8  128.75    9.04
  14   0  -8  118.65   10.44
 -14   0   8  115.69   10.62
  14   0  -8  110.65   11.68
  14   0  -8  125.46   12.93
  12   0  -8  174.91   16.33
  12   0  -8  177.20   13.63
 -12   0   8  170.07   13.26
  12   0  -8  159.03   14.96
 -12   0   8  162.42   12.21
 -10   0   8  175.44   12.44
 -10   0   8  169.92   13.75
  10   0  -8  180.69   16.77
 -10   0   8  151.72   12.96
  10   0  -8  163.86   13.88
  10   0  -8  195.29   15.01
  -8   0   8   23.15    3.08
   8   0  -8   21.75    3.17
   8   0  -8   14.83    5.45
  -8   0   8   25.49    3.53
  -8   0   8   22.79    2.34
   8   0  -8   22.51    4.90
  -6   0   8  393.17   26.64
   6   0  -8  330.34   29.92
  -6   0   8  355.63   27.34
   6   0  -8  396.80   27.41
  -6   0   8  347.21   26.25
  -6   0   8  398.07   26.61
  -4   0   8  125.89   10.22
  -4   0   8  139.19    9.78
   4   0  -8  155.57   11.06
   4   0  -8  139.43   14.33
   4   0  -8  135.51   12.46
  -4   0   8  127.96   10.92
   4   0  -8  123.37   14.28
   4   0  -8  135.20   13.74
  -2   0   8   81.05    7.70
   2   0  -8   95.72   11.40
  -2   0   8   92.70    6.54
  -2   0   8   87.43    7.13
   2   0  -8   79.65   10.08
   2   0  -8   93.04    9.20
   2   0  -8  106.95   11.67
   0   0   8    1.72    1.76
   0   0  -8   -0.95    5.09
   0   0   8    1.23    0.49
   0   0  -8   -2.10    2.38
   0   0  -8    1.52    3.38
   0   0  -8   -7.97    4.55
  -2   0  -8   83.44    8.44
  -2   0  -8  108.18   11.91
   2   0   8   91.46    6.32
  -2   0  -8   76.72    9.72
   2   0   8   85.46    7.37
  -2   0  -8   58.73   11.18
  -4   0  -8  213.04   20.35
  -4   0  -8  229.77   22.34
  -4   0  -8  194.38   21.65
   4   0   8  275.33   17.57
   4   0   8  265.74   18.51
  -4   0  -8  254.21   19.38
  -6   0  -8   49.84   10.25
  -6   0  -8   55.15    7.85
   6   0   8   61.58    5.98
  -6   0  -8   58.88    6.76
  -6   0  -8   60.97    6.74
  -6   0  -8   52.84   10.89
   6   0   8   64.65    4.71
  -8   0  -8   20.51    9.16
  -8   0  -8   35.64    8.57
   8   0   8   34.57    2.82
   8   0   8   32.66    3.00
  -8   0  -8   36.19    6.43
  -8   0  -8   40.52    5.39
  -8   0  -8   44.74    5.67
   8   0   8   37.76    4.67
  10   0   8  103.06    7.18
 -10   0  -8  105.67   10.48
 -10   0  -8   74.51   14.05
  10   0   8  107.24    8.87
 -10   0  -8  108.02   10.97
 -10   0  -8   73.85   10.44
 -10   0  -8  101.56   16.19
  12   0   8  211.37   16.07
 -12   0  -8  216.41   24.11
 -12   0  -8  206.48   16.72
 -12   0  -8  195.93   18.23
 -12   0  -8  200.68   17.72
 -12   0  -8  186.31   22.79
 -14   0  -8   29.45    5.76
 -14   0  -8   12.69    5.29
 -14   0  -8    4.44   12.14
 -14   0  -8   28.73   12.40
  14   0   8   27.82    4.81
 -14   0  -8   15.07    7.14
  16   0   8    1.36    4.62
 -16   0  -8    3.89    5.57
 -16   0  -8  -11.67   13.85
 -16   0  -8  -16.57   13.42
 -17  -1   8  164.43   14.74
  17  -1  -8  157.77   14.21
  17  -1  -8  166.97   13.45
  17   1  -8  160.69   13.10
  17   1  -8  149.45   14.20
 -17   1   8  139.57   14.99
 -17   1   8  155.88   11.81
  15  -1  -8   93.01   11.03
 -15  -1   8   82.55    9.66
 -15  -1   8   77.60    6.28
  15  -1  -8   67.29    9.18
  15  -1  -8   88.35    8.30
 -15   1   8   79.72    6.56
  15   1  -8   76.22    9.26
  15   1  -8   89.41    8.12
  15   1  -8   98.53   10.87
 -15   1   8   81.52    8.68
 -13  -1   8    1.69    2.87
  13  -1  -8    3.36    2.62
 -13  -1   8    2.27    1.00
  13  -1  -8    2.33    3.97
  13  -1  -8    5.56    5.11
  13   1  -8    1.94    2.30
  13   1  -8    2.62    4.28
 -13   1   8    3.01    1.02
  13   1  -8    1.85    3.54
 -13   1   8    4.46    2.77
 -11  -1   8   62.44    6.17
  11  -1  -8   60.10    9.63
 -11  -1   8   54.78    4.35
  11  -1  -8   55.79    6.43
  11   1  -8   57.40    7.69
 -11   1   8   51.69    4.43
  11   1  -8   61.62    6.00
  11   1  -8   51.94    8.50
 -11   1   8   48.66    5.52
  -9  -1   8  175.78   14.55
   9  -1  -8  197.48   16.03
  -9  -1   8  201.59   13.37
  -9  -1   8  179.00   13.87
   9  -1  -8  185.92   14.46
   9  -1  -8  162.47   17.69
  -9   1   8  169.16   13.68
  -9   1   8  183.42   14.49
  -9   1   8  212.28   13.48
   9   1  -8  153.37   14.02
   9   1  -8  180.42   17.12
   9   1  -8  197.90   15.68
  -7  -1   8  240.93   16.94
  -7  -1   8  248.37   16.74
   7  -1  -8  256.39   19.35
   7  -1  -8  238.32   17.73
   7  -1  -8  202.23   20.19
  -7  -1   8  237.87   17.78
   7   1  -8  199.87   19.63
  -7   1   8  222.10   17.56
  -7   1   8  216.13   16.70
  -7   1   8  234.26   16.51
   7   1  -8  225.34   18.69
   7   1  -8  250.53   17.48
  -7   1   8  221.59   16.69
  -5  -1   8   17.36    3.11
   5  -1  -8    9.18    5.23
   5  -1  -8   15.91    4.35
  -5  -1   8   13.89    1.99
  -5  -1   8   14.94    1.45
   5  -1  -8   19.11    3.20
   5  -1  -8   27.55    6.69
   5  -1  -8   11.45    4.14
   5   1  -8   21.27    6.34
  -5   1   8   20.99    2.21
   5   1  -8   19.45    5.17
   5   1  -8   18.71    2.73
  -5   1   8   17.86    2.14
  -5   1   8   14.64    1.61
  -5   1   8   14.78    2.87
   5   1  -8   13.82    3.63
  -3  -1   8   76.60    6.57
  -3  -1   8   81.50    6.01
   3  -1  -8   68.80    9.76
   3  -1  -8   92.82    8.91
   3  -1  -8   90.24   11.29
   3  -1  -8   89.22   11.32
  -3  -1   8   84.70    7.49
  -3   1   8   78.63    6.12
   3   1  -8   90.01    7.15
  -3   1   8   77.47    7.29
  -3   1   8   97.93    6.77
   3   1  -8   78.76   10.88
   3   1  -8   97.59   11.49
   3   1  -8   69.35    9.59
   3   1  -8   81.83    8.71
   1  -1  -8  648.42   48.25
   1  -1  -8  526.38   47.11
  -1  -1   8  649.80   43.87
  -1  -1   8  614.25   44.94
   1  -1  -8  681.84   48.67
   1   1  -8  685.27   48.95
  -1   1   8  617.21   43.95
   1   1  -8  653.53   48.58
  -1   1   8  710.42   44.59
   1   1  -8  589.99   45.92
  -1   1   8  609.52   44.86
   1   1  -8  530.39   46.96
  -1  -1  -8  213.20   19.87
  -1  -1  -8  257.74   22.45
   1  -1   8  260.86   19.17
   1  -1   8  269.58   18.10
  -1  -1  -8  275.27   22.88
   1   1   8  273.29   19.13
  -1   1  -8  230.41   21.25
  -1   1  -8  261.95   23.16
   1   1   8  257.64   18.18
  -1   1  -8  236.11   20.05
  -1   1  -8  287.42   23.44
  -3  -1  -8    7.02    3.36
  -3  -1  -8   12.02    3.20
   3  -1   8    9.44    1.16
  -3  -1  -8   10.07    5.35
   3  -1   8   11.81    2.55
  -3  -1  -8    7.94    5.90
  -3   1  -8    9.80    4.09
   3   1   8   10.36    1.23
  -3   1  -8    9.12    6.29
  -3   1  -8    7.49    5.61
  -3   1  -8    7.26    3.13
   3   1   8    9.35    2.05
  -5  -1  -8   75.50    7.40
  -5  -1  -8   79.36   10.73
   5  -1   8   78.90    6.70
  -5  -1  -8   47.80    9.34
  -5  -1  -8   79.14    7.10
  -5  -1  -8   60.14    8.55
   5  -1   8   69.44    5.29
   5   1   8   72.64    6.85
   5   1   8   61.34    5.24
  -5   1  -8   65.26   11.92
  -5   1  -8   66.51    7.35
  -5   1  -8   79.83   12.26
  -5   1  -8   68.04    8.54
   5   1   8   79.85    5.39
  -7  -1  -8  124.33   10.49
  -7  -1  -8   80.82   14.50
  -7  -1  -8  122.03   14.17
   7  -1   8  137.77    9.98
  -7  -1  -8   89.42   11.42
  -7  -1  -8  126.50   10.57
   7   1   8  109.03    8.54
  -7   1  -8  124.11   10.84
  -7   1  -8   95.00   14.33
   7   1   8  124.03    8.75
   7   1   8  126.14    9.81
  -7   1  -8  104.28   11.52
  -7   1  -8  139.38   10.76
  -9  -1  -8  186.36   15.63
  -9  -1  -8  186.43   20.67
  -9  -1  -8  181.47   16.95
  -9  -1  -8  180.37   15.25
  -9  -1  -8  146.34   26.61
   9  -1   8  188.62   14.81
   9   1   8  211.71   13.55
  -9   1  -8  176.39   19.73
  -9   1  -8  145.38   20.77
   9   1   8  211.04   14.77
  -9   1  -8  199.79   19.96
  -9   1  -8  147.97   16.24
   9   1   8  221.01   13.84
  -9   1  -8  169.29   15.46
 -11  -1  -8   39.44   11.25
 -11  -1  -8   36.32    6.33
 -11  -1  -8   42.18   11.23
 -11  -1  -8   31.60    6.67
  11  -1   8   32.59    4.68
 -11   1  -8   28.17    6.02
 -11   1  -8   41.41    5.68
  11   1   8   36.14    2.97
  11   1   8   42.19    5.27
 -11   1  -8   29.16   11.16
 -11   1  -8   52.31   12.71
 -11   1  -8   26.32    6.40
  13  -1   8   36.71    5.06
 -13  -1  -8   13.65   11.37
 -13  -1  -8   35.05    6.73
 -13  -1  -8   35.06    5.83
 -13  -1  -8    8.69    9.24
 -13   1  -8   30.94    5.90
 -13   1  -8    8.24   10.85
  13   1   8   38.19    4.93
 -13   1  -8   29.69    7.31
 -13   1  -8   32.97   12.94
 -13   1  -8   18.04    5.61
 -15  -1  -8  131.07   20.96
 -15  -1  -8  128.17   21.78
  15  -1   8  153.57   13.38
 -15  -1  -8  136.99   18.32
 -15  -1  -8  155.09   15.08
 -15   1  -8  140.84   15.16
 -15   1  -8  149.40   22.96
  15   1   8  153.37   13.18
 -15   1  -8  139.96   22.62
 -17  -1  -8   94.28   20.15
 -17  -1  -8   71.85   11.16
 -17  -1  -8   83.38   20.78
 -17   1  -8   67.92   10.87
 -17   1  -8   94.07   21.14
  17   1   8   96.82   11.15
 -17   1  -8   56.58   19.79
  18  -2  -8   15.88    5.55
 -18  -2   8   28.09    7.44
  18  -2  -8   27.49    4.85
  18   2  -8   29.58    5.98
  18   2  -8   16.41    4.01
 -18   2   8   23.88    3.26
 -16  -2   8    4.80    4.94
  16  -2  -8    4.00    4.64
  16  -2  -8    6.09    4.36
  16  -2  -8   14.15    3.76
 -16   2   8    9.61    1.98
 -16   2   8    3.34    4.50
  16   2  -8    8.09    4.12
  16   2  -8    4.21    2.90
  14  -2  -8   70.55    9.01
  14  -2  -8   74.80    7.55
 -14  -2   8   70.88    5.44
 -14  -2   8   66.94    8.33
  14  -2  -8   86.07   11.02
  14   2  -8   62.86    6.88
  14   2  -8   74.67    9.81
 -14   2   8   71.92    5.81
 -14   2   8   63.90    7.49
  14   2  -8   68.72    8.19
 -12  -2   8  162.26   11.64
  12  -2  -8  163.64   14.94
 -12  -2   8  158.29   12.89
  12  -2  -8  173.60   16.46
  12  -2  -8  169.96   13.51
 -12   2   8  154.58   11.82
  12   2  -8  136.60   13.78
 -12   2   8  161.77   12.61
  12   2  -8  154.14   12.75
  12   2  -8  195.13   15.83
  10  -2  -8   28.20    7.61
 -10  -2   8   26.73    3.80
  10  -2  -8   35.51    4.71
 -10  -2   8   26.03    2.45
  10  -2  -8   19.21    4.75
 -10  -2   8   30.98    4.26
  10   2  -8   33.72    3.65
 -10   2   8   26.78    2.62
  10   2  -8   22.90    5.68
 -10   2   8   23.33    3.34
  10   2  -8   31.30    5.45
   8  -2  -8   44.98    5.02
  -8  -2   8   42.36    5.13
  -8  -2   8   39.18    3.86
  -8  -2   8   38.29    3.26
   8  -2  -8   31.61    6.84
   8  -2  -8   39.84    6.25
   8   2  -8   28.68    5.29
   8   2  -8   33.76    6.50
  -8   2   8   32.07    3.67
  -8   2   8   38.52    3.31
  -8   2   8   34.41    4.60
  -8   2   8   40.25    3.19
   8   2  -8   39.41    4.07
   6  -2  -8   57.69    8.16
   6  -2  -8   71.97    6.70
   6  -2  -8   60.65    9.10
  -6  -2   8   69.03    6.77
   6  -2  -8   65.50    9.72
  -6  -2   8   69.10    5.44
  -6  -2   8   69.05    5.70
  -6   2   8   73.74    6.45
   6   2  -8   66.59    8.30
  -6   2   8   68.05    5.48
   6   2  -8   55.85    5.83
   6   2  -8   70.64    7.62
  -6   2   8   72.70    5.22
   4  -2  -8  154.24   14.51
   4  -2  -8  180.14   16.92
   4  -2  -8  142.68   15.51
  -4  -2   8  168.12   13.29
  -4  -2   8  166.23   12.40
   4  -2  -8  180.09   16.60
  -4   2   8  171.70   12.05
  -4   2   8  177.25   12.46
   4   2  -8  158.78   15.19
   4   2  -8  164.70   12.66
   4   2  -8  168.31   14.08
  -2  -2   8   83.11    5.80
   2  -2  -8   71.83   10.76
   2  -2  -8   85.24   11.11
   2  -2  -8   64.40    9.46
  -2  -2   8   81.43    7.22
   2  -2  -8   90.59    8.72
   2   2  -8   71.75    7.97
   2   2  -8   87.35   11.30
   2   2  -8  102.98   11.67
   2   2  -8   64.17    9.10
  -2   2   8   85.89    6.59
  -2   2   8   80.18    7.02
  -2   2   8   82.38    6.04
   0  -2  -8    2.89    3.66
   0  -2  -8    0.53    4.91
   0  -2   8   -0.90    1.49
   0  -2   8    2.54    0.50
   0  -2  -8    2.90    2.54
   0  -2  -8    2.68    4.71
   0   2  -8   10.37    5.88
   0   2   8    3.08    1.40
   0   2   8    3.69    1.39
   0   2   8    1.15    0.59
   0   2  -8    3.07    3.33
   0   2  -8    2.27    2.53
   0   2  -8   -6.52    4.57
  -2  -2  -8  137.99   13.56
  -2  -2  -8  102.75   11.77
   2  -2   8  108.77    9.61
  -2  -2  -8  113.07   10.56
  -2  -2  -8  104.78   12.67
   2  -2   8  134.85    8.43
  -2   2  -8  107.55   14.12
  -2   2  -8  112.40   11.73
   2   2   8  118.41    8.61
  -2   2  -8  104.24   10.54
  -2   2  -8  138.61   14.64
   2   2   8  117.64    9.28
   2   2   8  110.68    8.54
  -4  -2  -8  270.64   24.39
  -4  -2  -8  268.19   25.45
  -4  -2  -8  250.27   22.74
   4  -2   8  312.60   22.49
   4  -2   8  306.33   21.31
  -4  -2  -8  320.34   22.68
  -4   2  -8  321.18   26.95
  -4   2  -8  338.12   23.33
   4   2   8  305.01   21.45
  -4   2  -8  285.86   24.19
   4   2   8  310.18   21.40
  -4   2  -8  303.97   21.14
  -4   2  -8  282.66   26.11
   4   2   8  313.24   22.07
  -6  -2  -8  107.03   15.99
  -6  -2  -8  119.50    9.89
  -6  -2  -8   87.44    9.28
  -6  -2  -8  113.17   13.39
   6  -2   8  108.25    9.27
  -6  -2  -8   94.35   11.28
  -6   2  -8  115.28   10.07
  -6   2  -8  119.33   14.65
  -6   2  -8  103.88   15.49
   6   2   8  115.75    8.16
   6   2   8  113.96    8.04
   6   2   8  109.24    8.86
  -8  -2  -8    3.71    6.12
  -8  -2  -8   20.91    8.47
   8  -2   8   11.80    2.85
  -8  -2  -8    7.38    2.79
  -8  -2  -8   17.55    3.53
  -8  -2  -8   12.34    4.89
  -8   2  -8   10.21    4.43
  -8   2  -8   13.79    7.69
  -8   2  -8    1.72    8.61
  -8   2  -8    8.96    3.27
   8   2   8   12.61    2.89
   8   2   8   14.30    1.73
   8   2   8   15.26    1.63
  10  -2   8  121.37   10.32
 -10  -2  -8  134.60   13.28
 -10  -2  -8  121.11   11.52
 -10  -2  -8  120.68   17.25
 -10  -2  -8  120.59   10.89
 -10  -2  -8  106.74   16.75
 -10   2  -8  132.28   11.16
  10   2   8  119.59    8.82
  10   2   8  121.10    9.14
 -10   2  -8  119.14   17.98
 -10   2  -8  108.17   11.91
 -10   2  -8   99.77   17.51
  10   2   8  124.62   10.17
 -10   2  -8  114.41   12.10
  12  -2   8   52.21    6.19
 -12  -2  -8   41.11   11.92
 -12  -2  -8   47.89    7.31
 -12  -2  -8   54.71   13.17
 -12  -2  -8   53.76    9.68
 -12  -2  -8   51.35    8.22
 -12   2  -8   37.11   12.55
  12   2   8   44.93    3.85
 -12   2  -8   48.44    7.85
  12   2   8   50.42    5.71
 -12   2  -8   28.09   12.24
  12   2   8   45.49    4.24
 -12   2  -8   48.47    6.51
 -12   2  -8   45.34    7.51
 -14  -2  -8   36.16    9.33
  14  -2   8   38.51    5.44
 -14  -2  -8   26.02   12.45
 -14  -2  -8   23.41    6.18
 -14  -2  -8   37.18   13.45
 -14  -2  -8   47.04    7.23
  14   2   8   28.20    5.06
 -14   2  -8   21.57   12.32
  14   2   8   29.28    2.89
  14   2   8   28.14    3.40
 -14   2  -8   27.16    7.12
 -14   2  -8   34.48   13.79
 -16  -2  -8    6.70    6.11
 -16  -2  -8   -1.02   11.55
 -16  -2  -8   12.94   15.02
  16  -2   8   -1.08    4.67
 -16  -2  -8   -2.17    6.44
 -16  -2  -8    0.76    9.05
 -16   2  -8   -0.13    6.03
  16   2   8    7.21    4.82
  16   2   8    1.93    1.72
 -16   2  -8  -22.72   13.40
 -16   2  -8   27.21   15.23
 -17  -3   8   60.27    9.31
  17  -3  -8   73.86    9.42
  17  -3  -8   76.18    8.00
  17  -3  -8   88.79   11.07
 -17   3   8   59.51    5.89
  17   3  -8   58.22    7.11
  17   3  -8   75.66    8.92
  15  -3  -8   53.86    8.76
 -15  -3   8   58.05    7.32
  15  -3  -8   47.27    7.35
  15  -3  -8   42.30    5.92
  15   3  -8   43.65    6.63
 -15   3   8   47.78    4.60
  15   3  -8   59.29    5.80
  13  -3  -8   -3.89    4.20
  13  -3  -8   -1.94    2.67
 -13  -3   8   -4.11    2.98
  13  -3  -8   -0.59    4.87
 -13  -3   8    1.05    0.88
 -13   3   8    0.10    1.22
  13   3  -8    0.62    2.12
  13   3  -8    3.58    4.01
 -13   3   8    3.90    3.28
  13   3  -8   -3.07    3.01
 -11  -3   8   48.09    6.28
  11  -3  -8   57.16    6.41
  11  -3  -8   36.32    8.70
 -11  -3   8   49.09    5.55
 -11  -3   8   50.80    3.99
  11   3  -8   61.52    8.23
 -11   3   8   56.36    4.34
  11   3  -8   49.46    6.80
  11   3  -8   46.56    5.35
 -11   3   8   51.51    5.26
  -9  -3   8   15.70    3.48
  -9  -3   8   24.60    3.32
  -9  -3   8   24.01    2.20
   9  -3  -8   17.09    5.19
   9  -3  -8   25.21    7.60
   9   3  -8   28.19    3.24
  -9   3   8   22.51    2.40
  -9   3   8   23.79    2.29
   9   3  -8   19.02    5.22
  -7  -3   8  110.36    9.83
  -7  -3   8  115.09    8.86
   7  -3  -8  131.14   11.97
   7  -3  -8  106.28   11.22
   7  -3  -8  120.82    9.90
   7  -3  -8   79.43   12.00
  -7  -3   8  115.46    8.36
  -7   3   8  106.47    8.42
   7   3  -8  113.35   10.18
  -7   3   8  107.27    8.27
   7   3  -8  116.71    8.89
  -5  -3   8   80.83    8.36
   5  -3  -8   78.49   11.09
  -5  -3   8   88.11    7.16
   5  -3  -8   88.14    8.30
   5  -3  -8   85.32   11.76
   5  -3  -8   94.97    9.78
   5  -3  -8   94.03   11.64
   5   3  -8   97.76    7.49
  -5   3   8  103.93    7.29
   5   3  -8  104.58   10.30
  -5   3   8   92.87    7.89
  -5   3   8   90.79    6.92
   3  -3  -8   64.40    7.36
   3  -3  -8   55.73    9.26
   3  -3  -8   39.96    8.67
   3  -3  -8   52.19    9.13
  -3  -3   8   70.29    6.19
   3   3  -8   64.80    5.30
  -3   3   8   59.74    5.76
   3   3  -8   50.88    7.42
   3   3  -8   63.94    6.81
  -3   3   8   63.11    4.72
   1  -3  -8  262.88   21.45
  -1  -3   8  258.49   16.73
  -1  -3   8  229.50   18.07
   1  -3  -8  209.34   20.71
   1  -3  -8  187.95   20.19
   1  -3  -8  235.29   19.15
   1   3  -8  242.21   18.87
   1   3  -8  223.27   19.83
  -1   3   8  236.38   17.03
   1   3  -8  282.25   17.50
  -1   3   8  227.24   17.46
   1   3  -8  180.91   20.64
  -1   3   8  246.81   17.70
   1   3  -8  284.27   22.45
   1  -3   8  151.82   12.19
  -1  -3  -8  151.27   13.00
  -1  -3  -8  137.43   14.87
   1  -3   8  159.27   10.84
  -1  -3  -8  123.47   14.98
  -1  -3  -8  134.04   14.37
  -1   3  -8  138.25   13.89
   1   3   8  163.22   11.72
   1   3   8  158.62   11.19
   1   3   8  171.14   11.72
  -1   3  -8  159.35   16.49
   1   3   8  148.63   11.09
  -1   3  -8  161.27   16.60
   3  -3   8    8.61    1.09
  -3  -3  -8   11.02    4.09
   3  -3   8    9.56    2.54
  -3  -3  -8   11.04    2.96
  -3  -3  -8   10.08    2.33
  -3  -3  -8    9.57    5.64
  -3  -3  -8    6.61    1.81
  -3  -3  -8   12.93    5.22
  -3   3  -8    3.25    5.71
   3   3   8   10.18    1.34
  -3   3  -8   15.37    5.89
   3   3   8   10.12    1.30
  -3   3  -8   11.07    3.20
  -3   3  -8    4.49    3.53
   3   3   8   10.67    1.98
  -5  -3  -8   87.96   12.43
  -5  -3  -8   77.55    7.92
  -5  -3  -8   80.20    9.80
  -5  -3  -8   97.38   11.73
   5  -3   8   78.13    7.52
  -5  -3  -8   85.42    7.62
   5   3   8   74.71    6.20
  -5   3  -8   65.50    8.66
   5   3   8   89.31    6.21
  -5   3  -8   87.68    8.21
  -5   3  -8   67.03   12.59
  -5   3  -8  102.86   13.04
   5   3   8   83.91    6.85
   7  -3   8  103.70    9.40
  -7  -3  -8  109.76    9.71
  -7  -3  -8  102.85   15.29
  -7  -3  -8  108.00   13.49
  -7  -3  -8  113.31    9.86
  -7  -3  -8  113.98   11.94
  -7   3  -8   95.21   14.42
   7   3   8  112.90    8.26
   7   3   8  126.49    9.03
  -7   3  -8  100.83   10.84
   7   3   8  114.86    8.15
  -7   3  -8   94.44    9.83
   9  -3   8   26.90    3.88
  -9  -3  -8   13.35    7.79
  -9  -3  -8   25.45    9.10
  -9  -3  -8   16.01    3.42
  -9  -3  -8   32.21    4.51
  -9   3  -8   22.54   10.66
   9   3   8   25.69    3.97
   9   3   8   16.85    2.21
  -9   3  -8   22.77    4.25
  -9   3  -8   15.90    4.94
   9   3   8   19.36    2.02
  -9   3  -8   21.91    8.76
 -11  -3  -8   21.84    4.97
 -11  -3  -8   31.45   10.41
 -11  -3  -8   16.88    7.42
 -11  -3  -8    9.10    9.59
  11  -3   8   15.40    3.61
 -11   3  -8   14.28    5.16
  11   3   8   20.67    3.53
  11   3   8   18.13    2.03
  11   3   8   14.62    2.24
 -11   3  -8   29.39   11.63
 -11   3  -8   21.99   11.31
 -11   3  -8   19.97    4.60
 -13  -3  -8    6.33    4.34
  13  -3   8   -1.98    3.04
 -13  -3  -8    3.93    4.68
 -13  -3  -8  -17.52    8.70
 -13  -3  -8   20.85   10.72
 -13  -3  -8    6.25    6.93
  13   3   8    2.65    1.15
 -13   3  -8   12.08   10.58
 -13   3  -8   16.49    6.12
  13   3   8   -2.42    3.21
  13   3   8    0.54    1.43
 -13   3  -8   16.11   11.79
  15  -3   8   80.98    9.43
 -15  -3  -8   81.68   17.33
 -15  -3  -8   83.73   10.35
 -15  -3  -8   79.23   11.45
 -15  -3  -8   71.27   16.62
 -15  -3  -8   82.51   13.02
 -15   3  -8   65.71   17.47
  15   3   8   78.39    6.65
 -15   3  -8   81.37   18.00
  15   3   8   74.94    6.13
 -15   3  -8   56.96   10.52
  15   3   8   89.03    9.45
 -17  -3  -8   29.87    7.58
 -17  -3  -8   29.69   11.73
  17  -3   8   31.32    6.69
 -17  -3  -8   13.47   14.53
 -17  -3  -8   24.42    8.20
 -17  -3  -8    4.80   15.25
 -17   3  -8    7.23   16.68
  17   3   8   20.27    3.17
 -17   3  -8   17.41   17.28
  18  -4  -8    1.87    3.51
 -18  -4   8   -3.61    6.36
  18  -4  -8    6.73    5.32
  18   4  -8    2.02    2.97
 -18   4   8   -1.38    2.20
  16  -4  -8   18.15    6.66
 -16  -4   8   14.14    5.76
  16  -4  -8   16.33    5.45
  16  -4  -8   14.78    4.05
 -16   4   8   18.59    2.60
  16   4  -8   14.07    4.39
  16   4  -8   15.12    3.38
 -14  -4   8    5.25    4.26
  14  -4  -8    3.66    5.78
  14  -4  -8    4.07    5.02
  14  -4  -8    3.38    3.01
  14   4  -8    4.98    2.35
  14   4  -8    4.45    3.39
 -14   4   8    4.86    1.66
  12  -4  -8   78.11   12.14
 -12  -4   8   88.93    8.25
  12  -4  -8   78.76    8.40
 -12  -4   8   77.03    5.88
 -12  -4   8   78.84    8.37
  12  -4  -8   97.37   10.83
  12   4  -8   93.81    7.35
  12   4  -8   89.30   10.00
  12   4  -8   66.73    8.39
 -12   4   8   74.07    6.39
 -10  -4   8   17.95    2.98
  10  -4  -8   20.94    4.22
  10  -4  -8    6.94    4.64
 -10  -4   8    8.07    3.31
 -10  -4   8   15.06    1.62
  10  -4  -8   21.61    7.85
  10   4  -8   15.25    2.51
  10   4  -8   16.40    4.76
  10   4  -8   14.89    3.94
  -8  -4   8    3.29    0.98
   8  -4  -8    3.45    2.36
   8  -4  -8   -4.80    3.53
  -8  -4   8    5.53    2.52
  -8  -4   8    3.12    1.70
   8   4  -8    1.72    1.42
  -8   4   8    0.77    0.97
   8   4  -8   -0.05    3.34
  -8   4   8    2.74    0.97
   8   4  -8    2.92    2.69
   6  -4  -8   34.49    7.54
  -6  -4   8   37.09    3.23
  -6  -4   8   30.90    4.59
   6  -4  -8   39.87    4.98
   6  -4  -8   41.19    7.93
   6  -4  -8   30.16    6.10
   6   4  -8   39.06    4.85
   6   4  -8   28.34    3.37
  -6   4   8   33.24    2.92
  -6   4   8   28.42    3.06
   4  -4  -8   33.52    7.69
  -4  -4   8   53.10    5.70
   4  -4  -8   74.76   10.17
   4  -4  -8   59.67    7.22
   4  -4  -8   56.87    9.18
   4   4  -8   50.02    4.54
   4   4  -8   62.83    7.27
  -4   4   8   43.33    5.02
   4   4  -8   58.20    6.31
  -4   4   8   53.85    4.51
  -4   4   8   51.27    4.16
   2  -4  -8   -3.71    4.75
   2  -4  -8    5.07    4.49
  -2  -4   8    0.20    1.70
   2  -4  -8    1.79    2.58
   2  -4  -8   -2.22    3.55
  -2   4   8    1.46    0.75
   2   4  -8    2.65    4.72
   2   4  -8    3.92    2.78
   2   4  -8    0.48    1.09
  -2   4   8   -1.24    0.98
   2   4  -8   -2.21    2.06
   0  -4   8    0.71    1.79
   0  -4  -8   -0.97    2.62
   0  -4  -8   -1.47    4.67
   0  -4  -8    5.14    3.83
   0  -4  -8   -0.45    4.57
   0   4   8   -0.58    1.01
   0   4  -8   -3.16    2.34
   0   4   8   -1.70    0.56
   0   4  -8   -0.64    2.33
   0   4  -8   -2.06    4.64
   0   4  -8    0.76    1.18
   0   4   8   -1.40    1.04
   0   4   8   -1.23    0.72
  -2  -4  -8   20.22    5.78
   2  -4   8   10.89    1.02
   2  -4   8   10.66    2.64
  -2  -4  -8   10.30    2.24
  -2  -4  -8    9.33    4.19
  -2  -4  -8   11.49    2.18
  -2  -4  -8   11.75    5.45
  -2  -4  -8   11.69    3.16
  -2   4  -8    7.76    2.97
  -2   4  -8    3.97    5.53
   2   4   8    9.08    1.99
  -2   4  -8    7.56    3.60
  -2   4  -8   11.21    5.62
   2   4   8    9.59    1.31
   2   4   8    9.28    1.80
  -2   4  -8   10.72    1.71
   2   4   8    8.21    1.31
  -4  -4  -8   56.70    5.67
   4  -4   8   60.14    6.07
  -4  -4  -8   54.41    8.99
  -4  -4  -8   40.24    8.37
   4  -4   8   66.50    4.25
  -4  -4  -8   54.91    6.37
  -4  -4  -8   50.92    8.99
  -4   4  -8   52.41   10.16
  -4   4  -8   55.01    6.35
  -4   4  -8   47.21    6.90
   4   4   8   53.58    4.99
   4   4   8   58.50    4.53
  -4   4  -8   67.24   11.09
   4   4   8   50.92    4.46
  -6  -4  -8   92.36   13.75
   6  -4   8   88.28    7.99
  -6  -4  -8   96.46    8.01
  -6  -4  -8   82.37   10.60
  -6  -4  -8   81.50   11.85
  -6  -4  -8   91.26    8.33
   6   4   8   92.48    7.15
  -6   4  -8   88.84   13.88
  -6   4  -8   70.03    8.67
   6   4   8   83.46    6.53
  -6   4  -8   84.19    8.17
   6   4   8   85.75    6.61
  -8  -4  -8   13.83    7.71
  -8  -4  -8   16.99    7.60
   8  -4   8   13.61    3.32
  -8  -4  -8   16.41    3.54
  -8  -4  -8   12.73    3.29
  -8  -4  -8    9.29    5.85
   8   4   8   10.69    1.77
   8   4   8   17.58    2.60
  -8   4  -8   -0.58    9.61
  -8   4  -8    7.07    3.09
  -8   4  -8   14.33    7.86
  -8   4  -8    4.85    3.60
   8   4   8   13.50    1.64
 -10  -4  -8   -0.53    7.39
 -10  -4  -8    8.77    4.18
  10  -4   8    9.13    2.89
 -10  -4  -8    1.34    5.56
 -10  -4  -8    2.07    6.86
 -10   4  -8   11.84   10.09
  10   4   8    5.30    1.11
  10   4   8    5.39    1.52
  10   4   8    4.48    2.38
 -10   4  -8    3.26    3.27
 -10   4  -8    8.06    9.85
 -10   4  -8    6.37    3.44
 -12  -4  -8    4.20    9.50
 -12  -4  -8   18.56    5.31
  12  -4   8    9.38    3.53
 -12  -4  -8    4.81    9.55
  12   4   8   11.92    2.02
  12   4   8   11.93    1.67
 -12   4  -8   14.86   11.00
 -12   4  -8    3.82   10.87
  12   4   8   13.66    3.77
 -14  -4  -8    5.49   10.73
 -14  -4  -8   -2.66    4.15
 -14  -4  -8   13.89    8.51
  14  -4   8   10.36    4.33
 -14  -4  -8    1.07   10.33
 -14   4  -8    7.14   12.40
 -14   4  -8   -2.66   12.19
  14   4   8    7.77    1.90
 -16  -4  -8   -4.32   12.32
 -16  -4  -8    3.14    9.79
 -16  -4  -8   -3.03    6.30
  16  -4   8   -2.80    4.79
 -16  -4  -8    6.55    5.70
 -16  -4  -8    3.78   13.80
 -16   4  -8    3.21   15.11
  16   4   8    2.48    2.59
  16   4   8    0.74    1.81
 -16   4  -8    0.74   15.00
  17  -5  -8   -3.95    3.22
  17  -5  -8   -1.03    5.92
 -17  -5   8  -14.44    5.41
  17  -5  -8   -3.02    4.99
 -17   5   8   -0.09    1.92
  17   5  -8   -3.85    2.58
 -15  -5   8    4.26    4.73
  15  -5  -8    2.25    3.45
  15  -5  -8   13.44    6.30
  15  -5  -8    3.96    5.19
  15   5  -8    6.71    2.66
 -15   5   8    1.38    1.60
  15   5  -8    4.99    3.52
 -13  -5   8   -3.08    3.21
  13  -5  -8    5.46    6.35
  13  -5  -8   -2.81    2.84
  13  -5  -8    0.31    5.26
 -13   5   8   -0.67    1.24
  13   5  -8    2.96    2.21
  13   5  -8   -1.76    2.85
  11  -5  -8   -1.24    2.78
 -11  -5   8   -2.15    2.86
 -11  -5   8   -0.84    2.72
  11  -5  -8   -2.31    6.53
  11   5  -8    3.30    1.98
  11   5  -8    4.56    3.71
 -11   5   8    2.35    1.30
  11   5  -8    2.43    2.90
  -9  -5   8    9.40    1.11
  -9  -5   8    4.99    3.03
  -9  -5   8    9.12    2.49
   9  -5  -8   10.21    7.09
   9  -5  -8    4.96    3.16
   9  -5  -8    5.97    4.40
  -9   5   8    6.17    2.25
   9   5  -8    9.40    1.80
   9   5  -8    8.59    3.01
  -9   5   8    6.02    1.44
   9   5  -8    7.14    3.80
   7  -5  -8    3.14    2.86
   7  -5  -8    3.64    5.41
  -7  -5   8    8.73    1.41
   7  -5  -8    3.53    4.38
   7  -5  -8   17.73    5.57
  -7  -5   8   12.13    3.20
  -7  -5   8    6.91    1.94
   7   5  -8    8.07    2.81
   7   5  -8    7.94    4.03
   7   5  -8    8.61    1.78
  -7   5   8    8.72    1.34
  -7   5   8    7.44    1.39
   5  -5  -8  -10.32    5.46
   5  -5  -8    0.05    3.19
   5  -5  -8   -4.86    4.09
  -5  -5   8    0.81    1.19
  -5  -5   8   -0.03    2.63
   5  -5  -8   -0.92    5.53
   5   5  -8   -0.57    1.93
   5   5  -8   -0.58    2.54
  -5   5   8    2.59    1.03
  -5   5   8    1.05    0.79
   5   5  -8    0.87    1.11
  -3  -5   8   46.31    5.29
   3  -5  -8   44.45    8.52
   3  -5  -8   44.69    6.24
   3  -5  -8   51.25    8.46
   3  -5  -8   26.67    6.92
  -3   5   8   45.38    4.55
  -3   5   8   42.26    3.93
   3   5  -8   43.83    5.58
   3   5  -8   46.30    6.32
  -3   5   8   46.43    3.70
   1  -5  -8    5.72    5.17
   1  -5  -8   10.69    5.02
   1  -5  -8    6.21    3.17
   1  -5  -8   -1.54    3.39
  -1  -5   8    5.72    2.37
   1   5  -8    9.67    3.37
  -1   5   8    9.61    1.32
  -1   5   8    9.89    1.72
  -1   5   8    5.17    1.56
   1   5  -8    7.81    2.84
  -1   5   8    8.03    1.37
   1   5  -8    4.56    1.10
   1  -5   8    0.84    1.83
  -1  -5  -8   13.76    4.72
  -1  -5  -8    5.99    4.76
  -1  -5  -8    7.36    2.77
  -1  -5  -8   -2.70    1.67
  -1  -5  -8    0.51    3.46
  -1  -5  -8    5.26    1.71
   1   5   8    2.49    1.37
   1   5   8    3.31    0.96
  -1   5  -8    4.68    0.73
  -1   5  -8    2.23    2.60
   1   5   8    4.42    1.08
  -1   5  -8    7.43    5.74
  -1   5  -8    3.30    0.67
   1   5   8    3.30    1.43
  -1   5  -8    5.18    0.90
  -1   5  -8    1.61    2.48
   3  -5   8   11.45    2.90
  -3  -5  -8   14.08    2.04
  -3  -5  -8   20.98    3.01
  -3  -5  -8   15.93    3.33
   3  -5   8   15.54    1.37
  -3  -5  -8    9.38    4.86
  -3  -5  -8   17.54    5.99
  -3  -5  -8    9.24    4.59
   3   5   8   13.06    2.33
  -3   5  -8   18.09    3.90
   3   5   8   21.82    2.71
   3   5   8   13.84    1.79
  -3   5  -8   22.78    6.76
   3   5   8   16.30    1.96
  -3   5  -8   12.11    3.22
  -3   5  -8   30.12    8.06
   5  -5   8    0.23    2.03
  -5  -5  -8    4.01    2.41
  -5  -5  -8    6.72    6.44
  -5  -5  -8   -1.15    4.49
  -5  -5  -8   11.83    5.64
  -5  -5  -8   -0.21    2.02
   5   5   8    0.72    1.50
   5   5   8    0.71    1.28
   5   5   8    0.61    0.74
  -5   5  -8    2.79    2.24
  -5   5  -8    1.04    2.58
  -5   5  -8   -4.66    6.04
   5   5   8    0.92    0.86
  -7  -5  -8    7.29    6.58
   7  -5   8   -2.50    2.24
  -7  -5  -8   -2.96    5.29
  -7  -5  -8    2.13    2.64
  -7  -5  -8  -14.13    5.58
  -7  -5  -8    3.38    2.46
   7   5   8    0.63    1.56
   7   5   8   -0.51    0.82
  -7   5  -8   13.51    9.23
   7   5   8    0.42    1.08
  -7   5  -8   -0.11    2.44
  -7   5  -8    3.95    2.26
  -7   5  -8   -0.91    5.85
  -9  -5  -8    3.22    6.51
  -9  -5  -8   -2.54    6.34
   9  -5   8    3.73    2.57
   9   5   8    2.12    0.97
  -9   5  -8   -0.52    9.89
  -9   5  -8    5.95    2.52
  -9   5  -8    2.27    2.37
   9   5   8    2.01    1.21
  -9   5  -8  -21.66    8.63
   9   5   8    0.97    1.92
  11  -5   8    4.77    3.31
 -11  -5  -8    4.14    8.30
 -11  -5  -8   15.56    8.71
 -11  -5  -8   10.74    4.21
 -11   5  -8  -18.75    9.78
  11   5   8    8.76    1.50
 -11   5  -8   -3.31   11.17
  11   5   8    7.17    1.65
  11   5   8    9.45    2.69
 -13  -5  -8    3.74    4.30
 -13  -5  -8  -12.81    8.65
 -13  -5  -8    5.28    9.37
  13  -5   8    5.42    3.75
 -13   5  -8   -1.47   11.70
  13   5   8    4.82    1.67
  13   5   8    5.55    1.77
 -13   5  -8   -6.15   11.44
  15  -5   8   14.03    5.28
 -15  -5  -8   22.09   13.18
 -15  -5  -8   17.10    6.22
 -15  -5  -8   12.82   12.38
 -15   5  -8   38.67   15.30
  15   5   8   15.10    2.50
 -15   5  -8   -2.44   13.87
  15   5   8   14.52    2.65
  16  -6  -8    9.62    6.44
  16  -6  -8    5.89    3.39
  16  -6  -8    7.20    5.22
 -16  -6   8   -8.27    5.11
 -16   6   8   -0.52    1.87
  16   6  -8    1.10    2.61
  16   6  -8    0.53    2.29
  14  -6  -8   25.97    5.17
  14  -6  -8   29.88    6.77
 -14  -6   8   20.77    5.16
  14  -6  -8   29.14    8.42
  14   6  -8   25.50    3.72
  14   6  -8   27.41    4.98
 -14   6   8   22.31    2.91
  12  -6  -8   -1.80    3.34
  12  -6  -8   11.32    7.58
  12  -6  -8    7.71    6.29
 -12  -6   8    2.15    3.16
 -12  -6   8    2.89    3.16
  12   6  -8    6.12    2.97
 -12   6   8    7.31    1.67
  12   6  -8    0.43    1.91
  10  -6  -8    5.21    6.19
 -10  -6   8    0.03    2.54
  10  -6  -8   -2.35    3.33
  10  -6  -8   -3.67    7.13
 -10  -6   8   -4.59    2.76
 -10   6   8    1.83    1.21
  10   6  -8   -0.44    1.45
 -10   6   8    0.28    1.11
  10   6  -8    3.83    2.76
   8  -6  -8   -2.63    7.07
   8  -6  -8    5.64    3.34
  -8  -6   8    4.65    0.97
  -8  -6   8    5.10    3.12
  -8  -6   8    7.78    2.25
   8  -6  -8   -0.60    4.72
   8   6  -8    1.36    3.37
   8   6  -8    4.45    2.56
  -8   6   8    4.02    1.16
  -8   6   8    5.81    1.54
   8   6  -8    5.75    1.38
   6  -6  -8    4.20    5.54
  -6  -6   8    2.13    2.58
   6  -6  -8   -2.53    6.74
   6  -6  -8    1.52    6.26
  -6  -6   8    1.47    1.14
   6  -6  -8   -4.89    3.45
   6   6  -8   -0.76    1.04
   6   6  -8    0.92    3.34
   6   6  -8    1.17    2.21
  -6   6   8   -0.97    0.83
  -6   6   8   -0.50    0.90
  -4  -6   8   96.12    9.28
   4  -6  -8   79.89   12.13
   4  -6  -8   96.82   10.33
   4  -6  -8   99.54   11.93
   4  -6  -8   80.91   13.38
   4   6  -8   90.55    9.62
   4   6  -8  114.86    7.53
  -4   6   8   97.42    7.75
  -4   6   8  106.97    7.65
   2  -6  -8   52.72    8.80
   2  -6  -8   31.80    5.45
   2  -6  -8   38.55    8.03
   2  -6  -8   46.40    8.90
  -2  -6   8   41.80    5.24
   2   6  -8   44.58    5.80
   2   6  -8   52.10    5.38
  -2   6   8   39.91    3.81
  -2   6   8   44.02    3.94
   2   6  -8   44.99    3.35
  -2   6   8   38.82    3.57
   0  -6   8   42.01    5.28
   0  -6  -8   31.28    7.44
   0  -6  -8   44.37    5.71
   0  -6  -8   40.93    4.46
   0  -6  -8   43.08    7.75
   0  -6  -8   41.14   11.82
   0   6  -8   34.63    4.93
   0   6   8   40.74    3.51
   0   6  -8   33.58    2.98
   0   6  -8   44.47    5.61
   0   6   8   33.91    3.65
   0   6   8   38.00    3.25
  -2  -6  -8   32.21    3.19
   2  -6   8   19.80    3.78
  -2  -6  -8   23.78    7.16
  -2  -6  -8   23.39    6.91
  -2  -6  -8   25.98    4.49
  -2  -6  -8   29.98    7.36
  -2  -6  -8   28.00    3.51
  -2   6  -8   30.74    8.38
  -2   6  -8   23.61    4.20
   2   6   8   21.94    3.00
  -2   6  -8   27.87    3.95
  -2   6  -8   32.26    2.19
   2   6   8   24.40    2.66
   2   6   8   29.15    2.89
   2   6   8   19.74    2.44
  -4  -6  -8   24.30    6.94
   4  -6   8   48.01    5.73
  -4  -6  -8   44.33    9.32
  -4  -6  -8   37.29    5.80
  -4  -6  -8   45.55    4.88
  -4  -6  -8   51.61    9.20
   4   6   8   46.08    3.87
  -4   6  -8   52.36    9.76
  -4   6  -8   46.12    5.24
  -4   6  -8   42.33    5.36
   4   6   8   45.59    3.76
   4   6   8   44.73    4.33
   4   6   8   45.98    3.89
  -6  -6  -8   -4.47    5.45
   6  -6   8   -1.23    2.21
  -6  -6  -8    1.98    2.23
  -6  -6  -8   -2.75    5.77
  -6  -6  -8    2.89    5.13
  -6   6  -8    0.73    2.05
  -6   6  -8    2.27    6.29
   6   6   8    2.81    1.19
   6   6   8    1.79    1.27
  -6   6  -8    2.24    9.00
   6   6   8    2.75    0.95
   6   6   8    0.31    1.58
  -6   6  -8    0.24    2.01
  -8  -6  -8    2.09    2.44
  -8  -6  -8    4.54    6.53
   8  -6   8    0.92    2.64
  -8  -6  -8   -0.26    6.39
   8   6   8    3.81    1.03
  -8   6  -8   -8.48    9.50
  -8   6  -8   15.68   10.08
  -8   6  -8    2.15    1.78
   8   6   8    2.12    1.36
   8   6   8    3.55    1.77
   8   6   8    1.18    1.20
  -8   6  -8    2.89    1.89
 -10  -6  -8   -3.60    7.20
 -10  -6  -8    6.71    3.76
  10  -6   8   -2.18    2.83
 -10  -6  -8   -0.58    7.76
 -10   6  -8    9.64   10.57
 -10   6  -8   -8.91    9.65
  10   6   8    0.87    1.42
 -12  -6  -8   27.20   10.30
  12  -6   8   31.80    5.29
 -12  -6  -8   18.43    5.52
 -12  -6  -8   28.10   11.05
  12   6   8   25.08    3.19
  12   6   8   27.87    3.19
 -12   6  -8   13.92   12.00
 -12   6  -8   31.02   12.87
  14  -6   8   22.57    5.29
 -14  -6  -8   26.31   11.84
 -14  -6  -8   18.74   11.09
 -14  -6  -8   13.05    5.55
  14   6   8   17.19    2.74
 -14   6  -8    8.86   13.37
  14   6   8   23.42    2.84
 -14   6  -8   20.05   13.86
 -16  -6  -8   -3.94   13.28
 -16  -6  -8    7.48    5.92
 -16  -6  -8    2.53   13.80
  16  -6   8   -2.04    5.62
  16   6   8    6.72    2.43
 -16   6  -8  -17.11   15.67
  16   6   8   -0.81    1.87
 -16   6  -8   -5.09   16.00
  17  -7  -8   -5.26    3.56
 -17  -7   8  -10.22    5.88
  15  -7  -8   39.25    7.75
  15  -7  -8   26.80    8.81
 -15  -7   8   31.06    6.36
  15  -7  -8   33.75    5.90
 -15   7   8   32.80    3.94
  15   7  -8   30.94    4.16
  15   7  -8   38.94    4.96
  13  -7  -8   15.43    8.95
  13  -7  -8   18.37    6.87
 -13  -7   8   39.16    5.76
  13  -7  -8   30.96    5.50
 -13  -7   8   30.96    5.48
 -13   7   8   28.34    3.30
  13   7  -8   29.10    5.33
  13   7  -8   32.01    4.20
  13   7  -8   24.40    3.42
  11  -7  -8   17.63    9.11
  11  -7  -8   28.68    7.88
 -11  -7   8   27.67    4.85
  11  -7  -8   22.66    4.68
 -11  -7   8   24.78    4.59
  11   7  -8   17.69    2.87
  11   7  -8   25.34    3.21
  11   7  -8   21.71    4.20
 -11   7   8   23.14    2.81
   9  -7  -8   54.29   11.63
  -9  -7   8   68.60    7.19
   9  -7  -8   60.28    8.26
  -9  -7   8   79.60    7.99
   9   7  -8   75.12    5.93
  -9   7   8   74.51    5.92
   9   7  -8   65.81    7.63
  -9   7   8   72.46    5.92
   7  -7  -8   70.76   10.11
   7  -7  -8   61.22   12.14
   7  -7  -8   65.62    9.38
   7  -7  -8   76.93   10.60
  -7  -7   8   74.45    5.44
  -7  -7   8   69.20    7.81
   7  -7  -8   78.78    8.16
  -7  -7   8   72.97    6.95
   7   7  -8   71.06    7.61
   7   7  -8   68.56    5.60
  -7   7   8   66.86    5.76
  -7   7   8   66.96    5.82
   7   7  -8   70.52    8.38
  -5  -7   8    2.64    2.76
   5  -7  -8    2.84    3.34
   5  -7  -8   -1.42    6.17
   5  -7  -8   -1.15    5.66
   5  -7  -8   -2.94    5.65
   5   7  -8    1.21    0.88
  -5   7   8    1.44    1.20
   5   7  -8    0.24    3.08
  -5   7   8    1.62    1.23
   5   7  -8    3.50    2.18
   5   7  -8    0.27    0.89
  -3  -7   8   62.14    6.53
   3  -7  -8   51.57    9.07
   3  -7  -8   51.43   10.07
   3  -7  -8   33.80    8.41
  -3   7   8   60.25    4.90
   3   7  -8   54.44    4.16
  -3   7   8   54.50    4.76
   3   7  -8   60.64    6.80
   3   7  -8   60.42    5.87
  -3   7   8   50.36    4.51
   1  -7  -8   53.83    6.76
   1  -7  -8   39.33    9.01
   1  -7  -8   58.58    9.55
  -1  -7   8   56.15    6.22
   1  -7  -8   64.61    9.81
  -1   7   8   58.38    4.87
  -1   7   8   59.01    4.96
   1   7  -8   68.32    6.70
  -1   7   8   50.35    4.62
   1   7  -8   54.20    5.79
   1   7  -8   63.15    4.98
   1  -7   8   15.47    3.41
  -1  -7  -8   17.09    2.39
  -1  -7  -8   17.90    6.31
  -1  -7  -8   13.49    6.35
  -1  -7  -8   15.61    2.38
  -1  -7  -8   14.19    3.70
  -1  -7  -8   16.32    5.76
   1   7   8   16.19    1.89
  -1   7  -8   13.80    1.57
  -1   7  -8   16.30    3.38
   1   7   8   13.45    2.07
  -1   7  -8   10.63    2.63
   1   7   8   13.41    2.02
  -3  -7  -8   14.63    5.63
   3  -7   8   21.92    3.99
  -3  -7  -8   14.20    7.52
  -3  -7  -8   19.76    2.99
  -3  -7  -8   25.25    7.16
   3   7   8   24.74    2.86
   3   7   8   20.18    2.35
  -3   7  -8   26.00    3.89
   3   7   8   18.81    2.43
   5  -7   8    0.14    2.61
  -5  -7  -8   10.54    5.70
  -5  -7  -8   10.33    6.68
  -5  -7  -8    2.41    2.14
  -5  -7  -8    8.08    6.30
  -5  -7  -8    7.34    3.23
   5   7   8    2.36    1.23
   5   7   8    3.28    1.61
   5   7   8    3.15    1.11
  -5   7  -8    3.10    7.78
  -5   7  -8    3.34    1.84
  -5   7  -8    3.83    2.14
  -7  -7  -8   95.65   13.97
  -7  -7  -8   77.60   13.14
  -7  -7  -8   69.34    7.66
   7  -7   8   82.21    8.14
  -7   7  -8   83.53    6.49
   7   7   8   84.31    6.54
  -7   7  -8   74.59   14.46
   7   7   8   75.64    6.94
  -9  -7  -8   19.36    5.05
   9  -7   8   32.32    5.18
  -9  -7  -8   33.85    9.89
  -9  -7  -8   23.49    9.08
  -9   7  -8   41.78   12.33
   9   7   8   35.41    4.26
   9   7   8   33.61    3.37
   9   7   8   31.49    3.33
 -11  -7  -8    4.65    8.92
 -11  -7  -8   18.61    4.83
  11  -7   8    7.69    3.92
 -11  -7  -8    1.15    9.26
  11   7   8   10.74    2.14
  11   7   8   15.00    2.30
 -11   7  -8   16.32   11.43
  11   7   8   12.27    3.54
  13  -7   8    6.29    4.36
 -13  -7  -8  -10.89    9.16
 -13  -7  -8    7.89    5.12
 -13  -7  -8   -2.15    9.68
  13   7   8    3.67    1.84
  13   7   8    5.64    3.86
  13   7   8    1.91    1.65
 -13   7  -8   10.20   12.52
  15  -7   8   58.67    8.59
 -15  -7  -8   38.05   15.15
 -15  -7  -8   38.68   16.79
 -15  -7  -8   66.26    9.52
  15   7   8   57.28    7.36
  15   7   8   52.64    5.62
  15   7   8   62.69    5.66
 -15   7  -8   47.33   16.45
  16  -8  -8    7.39    7.78
 -16  -8   8    2.95    5.95
  16  -8  -8    0.78    4.34
  16   8  -8    0.93    2.85
 -16   8   8    1.39    2.03
  16   8  -8    3.27    2.56
  14  -8  -8   21.59    5.01
 -14  -8   8   16.37    5.55
  14  -8  -8   21.18    8.86
  14  -8  -8   31.74    7.39
  14   8  -8   19.09    3.35
  14   8  -8   27.41    3.56
 -14   8   8   19.74    2.84
  12  -8  -8   97.96   15.57
  12  -8  -8  107.02   10.69
 -12  -8   8   98.54   10.33
  12  -8  -8   99.50   14.18
 -12  -8   8  105.63   10.69
  12   8  -8  111.89    8.66
 -12   8   8   96.39    8.25
  12   8  -8  109.37    8.57
  10  -8  -8   20.94    9.09
  10  -8  -8   33.02    5.83
 -10  -8   8   44.21    6.00
 -10  -8   8   29.92    5.07
  10  -8  -8   34.13    8.72
  10   8  -8   40.40    4.89
  10   8  -8   41.68    5.68
  10   8  -8   29.58    3.67
 -10   8   8   32.29    3.56
 -10   8   8   31.14    3.59
   8  -8  -8   -1.69    6.84
  -8  -8   8    2.12    3.27
   8  -8  -8    3.38    3.69
   8  -8  -8    5.50    6.76
  -8  -8   8    3.51    2.60
  -8   8   8    3.84    1.52
   8   8  -8    2.62    1.16
  -8   8   8    1.28    1.31
   8   8  -8    2.64    1.50
   8   8  -8    0.81    2.35
   6  -8  -8   70.46   10.07
   6  -8  -8   44.26    6.40
   6  -8  -8   45.93    9.65
  -6  -8   8   56.12    6.85
  -6  -8   8   64.31    4.56
   6  -8  -8   35.62    9.81
   6   8  -8   59.48    6.43
  -6   8   8   57.28    4.73
  -6   8   8   52.68    4.61
   6   8  -8   44.04    4.23
   6   8  -8   53.62    4.48
   4  -8  -8  267.29   23.69
   4  -8  -8  241.97   24.91
  -4  -8   8  291.07   21.24
   4  -8  -8  225.60   22.16
   4  -8  -8  282.51   23.60
  -4   8   8  293.99   19.74
  -4   8   8  320.31   19.88
   4   8  -8  235.03   19.40
   2  -8  -8   26.74    8.09
   2  -8  -8   39.52    8.30
   2  -8  -8   35.07    7.75
  -2  -8   8   41.45    5.40
   2  -8  -8   28.02    8.33
   2   8  -8   42.77    4.69
   2   8  -8   36.07    5.41
  -2   8   8   32.97    4.01
  -2   8   8   28.82    3.73
  -2   8   8   31.57    3.41
   2   8  -8   42.33    3.13
   0  -8  -8   27.15    5.89
   0  -8  -8   28.42    7.54
   0  -8  -8   34.84    7.60
   0  -8   8   31.77    4.81
   0  -8  -8   31.57    4.22
   0  -8  -8   23.59    6.74
   0  -8  -8   33.99    3.34
   0   8  -8   33.27    4.12
   0   8  -8   27.05    2.66
   0   8   8   28.06    3.53
   0   8  -8   39.74    4.80
   0   8   8   32.28    3.17
  -2  -8  -8   75.62   11.95
  -2  -8  -8   71.77   11.37
  -2  -8  -8   78.05   12.06
   2  -8   8   80.04    8.07
  -2  -8  -8   79.83    6.12
  -2  -8  -8   74.32    8.81
  -2  -8  -8   82.26    6.89
  -2   8  -8   97.83    8.45
  -2   8  -8   85.22    5.90
   2   8   8   74.05    6.38
   2   8   8   71.93    6.55
   4  -8   8   74.54    7.66
  -4  -8  -8   61.89    6.26
  -4  -8  -8   90.80   13.13
  -4  -8  -8   76.81   11.59
  -4  -8  -8   74.94    8.19
  -4  -8  -8   65.48   11.54
  -4   8  -8   58.73    5.91
   4   8   8   62.37    5.56
   4   8   8   72.32    5.91
  -6  -8  -8   39.39    4.70
  -6  -8  -8   11.45    7.49
   6  -8   8   34.82    5.20
  -6  -8  -8   27.93    8.42
   6   8   8   28.37    3.42
   6   8   8   32.69    3.29
   8  -8   8    2.27    2.87
  -8  -8  -8    6.95    7.91
  -8  -8  -8   -5.58    6.97
  -8   8  -8   -7.16    8.35
   8   8   8    1.82    2.42
   8   8   8    0.30    1.26
   8   8   8    0.38    1.33
 -10  -8  -8   22.01    9.06
  10  -8   8   32.97    5.43
 -10  -8  -8   39.32    6.35
 -10  -8  -8   34.33   10.32
  10   8   8   31.77    3.67
  10   8   8   36.22    4.66
 -10   8  -8   24.05   11.59
  10   8   8   31.11    3.58
 -12  -8  -8   72.16   14.43
 -12  -8  -8   82.23   15.60
 -12  -8  -8   77.27    9.92
  12  -8   8   87.29    9.67
  12   8   8   68.62    7.87
  12   8   8   74.15    6.41
 -12   8  -8   39.14   14.00
  12   8   8   71.55    6.37
 -14  -8  -8   73.61   10.12
  14  -8   8   68.77    9.26
 -14  -8  -8   51.86   15.49
 -14  -8  -8   72.70   17.15
  14   8   8   67.53    6.28
  14   8   8   64.00    7.46
  14   8   8   66.93    6.37
 -14   8  -8   71.21   17.47
  15  -9  -8   86.57    9.39
  15  -9  -8   75.81   12.08
 -15  -9   8   58.81    8.89
  15   9  -8   67.12    7.20
  15   9  -8   76.52    6.96
 -15   9   8   62.03    6.31
 -13  -9   8    0.38    4.07
  13  -9  -8    5.34    4.13
  13  -9  -8   14.50    8.91
  13  -9  -8    1.80    6.96
 -13  -9   8   -1.99    4.19
  13   9  -8    3.68    2.41
 -13   9   8    1.40    1.67
  13   9  -8    2.86    2.28
 -11  -9   8   50.60    6.85
 -11  -9   8   47.96    6.87
  11  -9  -8   44.68    9.71
  11  -9  -8   49.23    6.94
  11  -9  -8   30.08   12.16
  11   9  -8   45.73    4.91
 -11   9   8   47.96    4.63
  11   9  -8   56.88    5.04
 -11   9   8   44.02    4.53
  -9  -9   8  133.60   13.30
   9  -9  -8  168.96   17.25
  -9  -9   8  156.45   12.74
   9  -9  -8  115.21   19.02
   9  -9  -8  132.04   13.21
   9   9  -8  133.67   11.17
   9   9  -8  157.69   11.05
  -9   9   8  158.41   11.24
  -9   9   8  149.40   11.25
   7  -9  -8   92.26   12.74
  -7  -9   8   78.09    9.81
   7  -9  -8   91.41    9.69
   7  -9  -8   77.78   14.22
   7  -9  -8  113.42   17.02
  -7  -9   8   83.11    8.47
   7  -9  -8   88.41   12.51
   7   9  -8   92.02    7.09
   7   9  -8   97.20    7.38
  -7   9   8  103.42    7.54
  -7   9   8   92.30    7.45
   7   9  -8   95.98    9.00
   5  -9  -8    9.75    7.27
  -5  -9   8   -4.03    2.80
   5  -9  -8   -3.44    6.28
   5  -9  -8    3.26    4.57
   5  -9  -8    4.12    6.92
  -5   9   8   -1.57    1.09
   5   9  -8    0.06    2.66
  -5   9   8   -0.35    1.36
   5   9  -8    2.37    0.94
   5   9  -8    0.99    0.96
  -3  -9   8   27.52    4.52
   3  -9  -8   22.93    7.46
   3  -9  -8   42.68    8.14
   3  -9  -8   23.48    8.35
   3  -9  -8   34.56    6.28
  -3   9   8   24.67    3.01
   3   9  -8   30.35    2.73
  -3   9   8   24.27    3.24
  -3   9   8   29.86    3.64
   1  -9  -8   65.32    8.40
   1  -9  -8   41.08    9.92
  -1  -9   8   69.65    7.30
   1  -9  -8   59.82    9.78
   1  -9  -8   75.54   10.95
  -1   9   8   59.73    5.44
   1   9  -8   57.34    6.00
  -1   9   8   61.79    5.27
  -1   9   8   66.44    5.66
  -1  -9  -8  188.36   17.76
   1  -9   8  183.20   15.05
  -1  -9  -8  188.33   19.13
  -1  -9  -8  176.11   15.61
   1   9   8  169.07   13.47
  -1   9  -8  174.76   12.88
   1   9   8  173.68   13.32
  -1   9  -8  189.43   13.88
   1   9   8  182.78   13.52
   3  -9   8   29.20    5.26
  -3  -9  -8   37.40    4.05
  -3  -9  -8   23.20    5.12
  -3  -9  -8   16.89    7.90
  -3  -9  -8   16.16    7.19
  -3  -9  -8   29.78    8.05
  -3   9  -8   28.59    3.68
   3   9   8   38.52    3.77
   3   9   8   25.45    3.15
   3   9   8   28.47    3.45
   5  -9   8   27.11    4.99
  -5  -9  -8   37.47    4.53
  -5  -9  -8   23.11    8.99
  -5  -9  -8   29.47    8.81
   5   9   8   25.42    3.25
   5   9   8   26.28    3.18
   5   9   8   27.71    3.48
  -7  -9  -8  155.83   18.85
   7  -9   8  167.16   14.13
  -7  -9  -8  146.57   18.62
  -7  -9  -8  173.73   13.42
   7   9   8  151.73   12.19
   7   9   8  147.95   12.57
   7   9   8  178.26   12.32
  -9  -9  -8   96.35   15.67
  -9  -9  -8   86.51   15.54
   9  -9   8  100.09    9.39
  -9  -9  -8   82.14    9.48
   9   9   8   82.59    7.97
   9   9   8   89.68    7.31
   9   9   8   87.08    7.33
  11  -9   8    1.33    4.04
 -11  -9  -8   -2.78    8.32
 -11  -9  -8    4.83    4.59
 -11  -9  -8   11.84    8.94
  11   9   8    0.64    2.97
  11   9   8    0.68    1.74
  11   9   8   -0.44    1.61
 -13  -9  -8   21.80   13.14
  13  -9   8   31.78    6.43
 -13  -9  -8   39.03   13.00
 -13  -9  -8   22.88    6.39
  13   9   8   18.60    3.18
  13   9   8   23.77    4.56
  13   9   8   19.48    3.08
 -14 -10   8  127.91   12.94
  14 -10  -8  111.78   16.23
  14 -10  -8  109.55   12.02
  14  10  -8  116.84    9.92
 -14  10   8  118.74    9.57
  14  10  -8  122.95   10.19
  12 -10  -8   34.48    6.22
  12 -10  -8   48.94   10.34
 -12 -10   8   48.05    7.15
  12 -10  -8   64.68   13.27
 -12 -10   8   49.90    7.09
  12  10  -8   47.28    5.14
  12  10  -8   41.69    4.73
 -12  10   8   35.60    4.32
  10 -10  -8   14.71    8.17
  10 -10  -8   21.63    5.31
  10 -10  -8   30.46   11.08
 -10 -10   8   26.82    5.63
 -10 -10   8   24.41    4.85
 -10  10   8   21.18    2.84
  10  10  -8   24.78    3.12
  10  10  -8   27.10    3.21
 -10  10   8   18.74    2.85
  -8 -10   8    7.90    3.34
  -8 -10   8   11.38    4.66
   8 -10  -8   16.69    9.72
   8 -10  -8   11.85    7.11
   8 -10  -8    7.37    4.37
  -8  10   8   11.36    2.11
  -8  10   8    7.79    1.79
   8  10  -8   13.93    1.92
   8  10  -8    9.27    2.03
   6 -10  -8   86.31   15.07
  -6 -10   8   96.12   10.20
   6 -10  -8  103.59   12.23
   6 -10  -8   93.27   13.30
   6 -10  -8  115.08   13.62
  -6  10   8  104.59    7.90
  -6  10   8   99.72    7.85
   6  10  -8   82.09    7.63
   6  10  -8  103.87    7.39
   4 -10  -8   75.85   14.21
   4 -10  -8  106.05   11.62
   4 -10  -8  110.54   13.56
  -4 -10   8  103.98   10.33
   4 -10  -8   99.06   14.14
  -4  10   8   86.48    8.23
   4  10  -8  106.18    7.72
  -4  10   8  107.51    8.03
  -4  10   8   96.59    7.93
  -2 -10   8  101.99   10.48
   2 -10  -8  125.10   14.05
   2 -10  -8  103.42   11.60
   2 -10  -8   96.29   13.42
   2 -10  -8   97.90   14.99
  -2  10   8  110.23    9.06
  -2  10   8   96.77    8.63
   2  10  -8  123.13    8.36
  -2  10   8  121.43    8.77
   0 -10  -8    4.37    3.69
   0 -10  -8   -7.02    5.86
   0 -10  -8    7.49    7.43
   0 -10  -8    7.17    6.69
   0 -10   8    1.24    3.47
   0  10   8    1.64    1.73
   0  10  -8    0.46    1.12
   0  10   8    2.05    1.43
   0  10   8   -0.41    1.36
  -2 -10  -8  260.78   18.17
  -2 -10  -8  240.29   20.31
  -2 -10  -8  207.06   22.80
  -2 -10  -8  246.46   24.00
   2 -10   8  239.79   19.69
  -2 -10  -8  234.27   22.99
   2  10   8  224.33   17.89
  -2  10  -8  230.29   17.43
   2  10   8  291.01   18.18
   2  10   8  246.89   18.13
   4 -10   8  198.11   15.64
  -4 -10  -8  161.48   19.23
  -4 -10  -8  200.20   14.30
  -4 -10  -8  142.20   18.89
  -4 -10  -8  195.11   20.13
   4  10   8  175.93   13.64
   4  10   8  177.28   13.78
  -6 -10  -8   30.10    9.16
   6 -10   8   52.72    6.50
  -6 -10  -8   37.74    4.95
  -6 -10  -8   15.24    8.60
   6  10   8   31.41    3.92
   6  10   8   29.54    3.67
   6  10   8   33.58    3.79
  -8 -10  -8   -1.75    4.08
   8 -10   8    4.32    4.05
  -8 -10  -8   10.12    8.37
  -8 -10  -8    2.98    8.79
   8  10   8    6.40    2.52
   8  10   8    2.91    1.65
   8  10   8    3.98    1.62
 -10 -10  -8   94.45   16.47
 -10 -10  -8   88.83   16.11
 -10 -10  -8  101.28   10.58
  10 -10   8   90.21   10.25
  10  10   8   90.75    8.25
  10  10   8   85.07    7.47
  10  10   8   79.63    7.44
 -12 -10  -8  118.96   12.49
 -12 -10  -8  106.18   19.29
 -12 -10  -8   78.73   17.45
  12 -10   8  104.25   11.99
  12  10   8  107.39    8.98
  12  10   8  116.09    9.91
  12  10   8  101.54    8.81
  13 -11  -8    7.54    4.52
 -13 -11   8    1.67    4.84
  13 -11  -8    3.90   10.87
  13  11  -8    5.61    2.94
  13  11  -8    2.16    2.41
 -13  11   8    4.47    2.04
 -11 -11   8   32.44    5.87
 -11 -11   8   32.61    6.54
  11 -11  -8   31.26    6.01
  11 -11  -8   23.85   12.38
  11 -11  -8   38.52   10.27
  11  11  -8   35.52    3.99
 -11  11   8   24.74    3.42
 -11  11   8   32.30    3.75
  11  11  -8   24.08    3.60
   9 -11  -8  153.93   15.53
   9 -11  -8  177.40   20.09
  -9 -11   8  180.60   15.27
   9 -11  -8  147.41   22.26
  -9 -11   8  172.60   15.98
  -9  11   8  193.57   13.55
   9  11  -8  177.82   13.24
   9  11  -8  188.96   13.55
  -9  11   8  178.76   13.58
   7 -11  -8   93.03   12.95
  -7 -11   8   84.99    8.14
  -7 -11   8   68.85    8.70
   7 -11  -8   69.53    9.06
   7 -11  -8   63.94   14.00
   7  11  -8   70.09    6.10
  -7  11   8   64.90    6.02
  -7  11   8   70.50    6.20
   5 -11  -8   -7.54    7.68
   5 -11  -8   -6.47    5.11
  -5 -11   8    9.25    4.35
   5 -11  -8    2.23    8.57
   5 -11  -8   -5.51    7.38
  -5  11   8    3.18    1.52
   5  11  -8   -0.86    1.45
  -5  11   8   -1.05    1.43
   3 -11  -8    7.18    7.48
   3 -11  -8   16.86    7.95
   3 -11  -8   10.99    5.67
  -3 -11   8   10.95    4.36
   3 -11  -8    7.72    7.62
  -3  11   8   12.15    2.15
  -3  11   8   12.08    2.15
  -3  11   8   17.20    2.84
   3  11  -8   14.37    2.03
   1 -11  -8   88.20   13.76
  -1 -11   8  104.06   10.66
   1 -11  -8   81.70   14.96
   1 -11  -8  109.27   17.03
   1 -11  -8  109.69   11.81
   1  11  -8  118.91    8.14
  -1  11   8  112.74    8.50
  -1  11   8   92.96    8.67
  -1  11   8  108.64    8.52
  -1 -11  -8  133.57   14.02
  -1 -11  -8  152.00   18.27
  -1 -11  -8  109.31   16.89
   1 -11   8  151.06   13.60
   1  11   8  136.64   11.46
  -1  11  -8  155.03   10.87
   1  11   8  139.26   11.27
   1  11   8  173.27   11.47
   3 -11   8   22.04    5.06
  -3 -11  -8   13.97    8.46
  -3 -11  -8   15.99    8.31
  -3 -11  -8   16.87    5.43
  -3 -11  -8    4.11    7.66
  -3 -11  -8   30.37    3.84
   3  11   8   16.63    2.98
   3  11   8   21.19    2.82
   3  11   8   19.33    2.80
   5 -11   8   13.86    4.67
  -5 -11  -8    7.27    8.62
  -5 -11  -8   17.36    3.71
  -5 -11  -8    6.74    7.70
   5  11   8   19.37    2.87
   5  11   8   17.14    2.71
   5  11   8   14.83    2.54
  -7 -11  -8  144.46   19.71
   7 -11   8  160.74   14.81
  -7 -11  -8  165.27   14.29
  -7 -11  -8  145.46   20.24
   7  11   8  165.03   12.61
   7  11   8  144.78   12.46
   7  11   8  190.92   12.78
  -9 -11  -8  126.89   12.51
  -9 -11  -8   79.91   16.72
  -9 -11  -8   89.77   16.72
   9 -11   8   97.53   12.34
   9  11   8  125.60    9.98
   9  11   8  130.97    9.90
   9  11   8  147.44   10.36
 -11 -11  -8    4.98    5.54
  11 -11   8    1.13    5.07
 -11 -11  -8  -13.17    9.92
 -11 -11  -8    3.97   10.58
  11  11   8   -1.55    3.15
  11  11   8    5.74    2.11
  11  11   8    2.02    2.25
  12 -12  -8   56.56   15.61
 -12 -12   8   62.96    8.98
  12 -12  -8   70.46    8.96
 -12  12   8   64.28    6.09
  12  12  -8   61.37    6.51
  12  12  -8   65.68    6.70
 -10 -12   8   48.69    6.78
  10 -12  -8   40.98   12.96
  10 -12  -8   28.72    6.19
 -10 -12   8   50.21    7.98
  10 -12  -8   30.01   10.32
  10  12  -8   45.87    4.89
 -10  12   8   35.68    4.54
 -10  12   8   41.44    4.43
   8 -12  -8    2.34    4.07
   8 -12  -8   13.17   10.18
   8 -12  -8    8.21    8.28
  -8 -12   8    4.50    5.38
  -8 -12   8    2.90    3.51
   8  12  -8   -0.34    1.77
  -8  12   8   -0.64    2.75
  -8  12   8    0.06    1.76
   6 -12  -8  101.24   11.67
   6 -12  -8   86.50   13.14
  -6 -12   8  121.10   10.95
  -6 -12   8  118.39   12.41
   6 -12  -8  107.26   14.27
   6 -12  -8   75.50   15.65
  -6  12   8  134.91    9.21
   6  12  -8  118.07    8.99
  -6  12   8  113.36    9.15
  -4 -12   8  166.16   15.00
   4 -12  -8  175.11   19.57
   4 -12  -8  129.87   19.72
   4 -12  -8  133.87   18.49
   4 -12  -8  136.39   16.46
  -4  12   8  166.23   12.36
   4  12  -8  177.36   12.20
  -4  12   8  160.80   12.39
  -4  12   8  165.40   12.85
  -2 -12   8   26.53    5.21
   2 -12  -8   17.63    9.01
   2 -12  -8   25.68    9.25
   2 -12  -8   37.81    7.08
  -2  12   8   24.14    3.46
   2  12  -8   19.65    2.99
  -2  12   8   26.83    3.30
  -2  12   8   18.11    2.87
   0 -12  -8    2.92    8.73
   0 -12  -8    5.07    8.79
   0 -12  -8   -3.25    7.10
   0 -12  -8    4.72    4.90
   0 -12   8   10.21    4.63
   0  12   8    2.27    1.92
   0  12   8    6.74    1.83
   0  12   8    5.36    1.80
   0  12  -8    4.86    1.62
   2 -12   8   91.37   10.09
  -2 -12  -8  107.39   16.07
  -2 -12  -8   70.50   13.21
  -2 -12  -8   74.39   13.55
  -2 -12  -8   77.05   10.29
   2  12   8   73.48    6.77
   2  12   8   79.73    6.81
   2  12   8   84.06    7.24
   4 -12   8   63.51    8.43
  -4 -12  -8   79.35   14.11
  -4 -12  -8   61.11   13.25
  -4 -12  -8   72.01    6.84
  -4 -12  -8   70.85   12.73
  -4 -12  -8   56.71    8.86
   4  12   8   61.94    5.80
   4  12   8   55.53    5.74
   4  12   8   66.01    6.07
   6 -12   8   34.42    8.81
  -6 -12  -8   25.97   11.09
  -6 -12  -8   38.40   12.09
  -6 -12  -8   49.70    6.26
   6  12   8   37.93    4.43
   6  12   8   31.22    4.00
   6  12   8   37.71    4.46
   8 -12   8    5.10    4.80
  -8 -12  -8   13.44   10.49
  -8 -12  -8   12.25    4.90
  -8 -12  -8    6.78   11.09
   8  12   8    1.46    2.40
   8  12   8    2.23    2.07
   8  12   8    8.74    2.39
 -10 -12  -8   35.51   14.44
 -10 -12  -8   14.61   12.29
  10 -12   8   27.29    7.02
 -10 -12  -8   44.33    7.74
  10  12   8   41.30    4.47
  10  12   8   26.57    3.96
  10  12   8   32.85    4.24
   9 -13  -8   72.82   16.02
   9 -13  -8   50.06   12.14
   9 -13  -8   52.34    8.27
  -9 -13   8   65.72    8.69
  -9 -13   8   68.03    9.39
   9  13  -8   70.44    6.25
  -9  13   8   62.38    6.09
  -7 -13   8   48.12    8.29
   7 -13  -8   40.64   10.67
   7 -13  -8   43.25    7.40
   7 -13  -8   51.50   13.71
  -7 -13   8   57.40    7.34
   7  13  -8   45.89    5.11
  -7  13   8   52.47    4.96
  -7  13   8   46.83    5.00
   5 -13  -8  -14.54    9.44
  -5 -13   8    6.72    5.37
  -5 -13   8   -1.23    3.29
   5 -13  -8   -0.58    9.36
   5 -13  -8    3.46    7.05
  -5  13   8    4.36    1.81
   5  13  -8    8.54    2.13
  -5  13   8    1.17    1.95
   3 -13  -8   47.77    9.24
   3 -13  -8   65.99   14.60
   3 -13  -8   70.32   13.50
   3 -13  -8   58.48   13.01
  -3 -13   8   76.24    8.98
   3  13  -8   59.52    5.68
  -3  13   8   60.17    5.70
  -3  13   8   62.76    5.65
  -3  13   8   60.53    6.41
   1 -13  -8   40.58    7.92
   1 -13  -8   40.28   11.62
   1 -13  -8   47.01   12.11
   1 -13  -8   66.30   13.39
  -1 -13   8   52.29    7.39
  -1  13   8   52.82    5.02
  -1  13   8   51.92    5.00
  -1  13   8   49.44    5.55
   1 -13   8    9.46    5.59
  -1 -13  -8   14.39    6.01
  -1 -13  -8   18.33    9.77
  -1 -13  -8   29.50   10.04
  -1 -13  -8   17.43   10.55
   1  13   8   16.34    2.75
   1  13   8   16.24    2.93
   1  13   8   18.53    2.83
   3 -13   8   18.81    5.93
  -3 -13  -8   29.09   10.96
  -3 -13  -8   13.70    9.67
  -3 -13  -8   29.86    6.39
  -3 -13  -8   -2.15    9.85
   3  13   8   23.28    3.30
   3  13   8   28.47    3.41
   3  13   8   27.24    3.70
  -5 -13  -8   26.48   11.02
  -5 -13  -8   13.95    9.82
   5 -13   8    8.98    5.69
   5  13   8    9.79    2.49
   5  13   8   10.95    2.50
   5  13   8    8.89    2.56
  -7 -13  -8   67.78    9.16
  -7 -13  -8   50.96   14.74
   7 -13   8   59.86    8.98
  -7 -13  -8   46.50   14.11
   7  13   8   54.95    6.03
   7  13   8   63.33    5.98
   7  13   8   54.74    5.98
  -9 -13  -8   14.03   12.56
  -9 -13  -8   46.12    8.20
   9 -13   8   58.40    8.93
  -9 -13  -8   49.41   13.63
   9  13   8   43.24    5.56
   9  13   8   46.07    5.22
   9  13   8   44.99    5.41
   8 -14  -8    1.70   12.10
   8 -14  -8    1.95    5.09
  -8 -14   8    2.31    4.26
  -8 -14   8   13.29   10.78
   8 -14  -8   -1.86    9.95
   8  14  -8   -1.07    2.29
  -8  14   8    2.87    2.23
  -8  14   8   -0.72    1.95
   6 -14  -8    3.93    5.25
  -6 -14   8    6.60    4.21
  -6 -14   8   -0.18    6.45
   6 -14  -8   -3.46    8.19
   6 -14  -8   -2.85   10.55
  -6  14   8    1.12    2.16
  -6  14   8    7.44    2.14
   6  14  -8    0.92    2.34
   4 -14  -8   59.59   14.12
  -4 -14   8   36.96    7.74
   4 -14  -8   20.69   11.55
   4 -14  -8   45.30    9.86
  -4  14   8   38.79    4.65
  -4  14   8   43.96    4.51
   4  14  -8   38.58    4.76
  -4  14   8   35.08    4.85
   2 -14  -8   26.16   11.39
   2 -14  -8   15.74    7.05
   2 -14  -8   16.65   12.04
   2 -14  -8   36.17   13.71
  -2 -14   8   35.33    7.27
  -2  14   8   18.66    2.97
   2  14  -8   22.50    3.24
  -2  14   8   18.58    3.64
  -2  14   8   21.64    3.20
   0 -14   8   16.47    6.36
   0 -14  -8   15.43    6.64
   0 -14  -8    1.62   11.10
   0 -14  -8   18.65   10.15
   0 -14  -8   14.50   10.87
   0  14   8   12.92    3.00
   0  14   8   21.21    2.92
   0  14   8   10.16    2.69
  -2 -14  -8    8.67   11.23
  -2 -14  -8   23.70   11.18
   2 -14   8   15.28    6.13
  -2 -14  -8   10.07    5.77
  -2 -14  -8   10.95   10.63
   2  14   8   10.04    2.59
   2  14   8   12.90    2.80
   2  14   8    5.65    2.49
   4 -14   8   36.37    7.58
  -4 -14  -8   14.80    6.08
  -4 -14  -8   27.86   11.69
  -4 -14  -8   23.02   11.50
  -4 -14  -8   12.63   10.75
   4  14   8   24.82    3.43
   4  14   8   22.36    3.49
   4  14   8   22.60    3.67
   6 -14   8    4.74    6.24
  -6 -14  -8   12.00   11.21
  -6 -14  -8    7.02   11.03
   6  14   8    8.87    2.78
   6  14   8    6.41    2.50
   6  14   8    9.57    2.84
   5 -15  -8    5.05    5.12
   5 -15  -8   19.70   12.60
   5 -15  -8   -4.88    8.41
  -5 -15   8   -0.39    3.98
  -5  15   8   -0.17    2.05
  -5  15   8    5.22    2.47
   5  15  -8    8.79    2.84
  -3 -15   8   12.16    7.34
   3 -15  -8    6.74   11.04
   3 -15  -8   11.69    8.03
   3 -15  -8    7.61   14.63
  -3  15   8    2.47    2.37
  -3  15   8    6.10    2.99
  -3  15   8    1.69    2.00
   3  15  -8    2.51    2.58
   1 -15  -8   -8.25   13.04
   1 -15  -8    7.12    6.63
   1 -15  -8  -10.81    9.39
  -1 -15   8   -3.10    6.34
   1 -15  -8   12.35   13.10
  -1  15   8    0.73    1.98
  -1  15   8    3.57    2.83
  -1  15   8    2.10    2.01
   1 -15   8    8.56    6.69
  -1 -15  -8   19.35   12.57
  -1 -15  -8   15.74   11.67
  -1 -15  -8    7.51    6.93
  -1 -15  -8   11.22   10.51
   1  15   8    1.14    2.23
   1  15   8   -0.25    2.58
   1  15   8    6.87    2.52
  -3 -15  -8   12.18   12.69
  -3 -15  -8    6.42    6.51
  -3 -15  -8   -3.14   11.16
   3 -15   8   -5.68    6.72
  -3 -15  -8    9.33   10.53
   3  15   8    7.91    2.71
   3  15   8    5.48    2.77
   3  15   8    8.33    2.64
 -18   0   9    2.40    7.94
  18   0  -9    3.04    5.04
  18   0  -9    0.37    3.31
 -16   0   9   -4.64    4.81
  16   0  -9   -0.35    5.64
  16   0  -9    1.78    3.44
  16   0  -9   -4.45    4.46
 -16   0   9    1.31    1.74
  14   0  -9    1.12    5.33
 -14   0   9    0.42    1.16
 -14   0   9    1.65    3.28
  14   0  -9   -4.16    4.15
  14   0  -9    3.69    3.09
 -12   0   9   -0.03    0.90
  12   0  -9    2.82    5.15
  12   0  -9    4.55    2.91
 -12   0   9    2.31    2.83
  12   0  -9    3.66    4.42
 -10   0   9    3.59    2.60
 -10   0   9    0.06    0.95
  10   0  -9    6.43    5.27
  10   0  -9    2.98    4.41
 -10   0   9    2.52    2.17
  10   0  -9    3.42    2.87
  -8   0   9   -0.12    0.96
   8   0  -9   -1.00    1.68
   8   0  -9   -2.49    5.06
  -8   0   9    0.15    2.18
   8   0  -9    1.54    3.14
  -8   0   9    0.29    1.37
  -6   0   9   -0.80    0.58
   6   0  -9   -6.31    7.50
   6   0  -9   -1.38    1.76
  -6   0   9   -0.33    1.36
  -6   0   9    0.40    1.00
   6   0  -9    1.60    3.22
   6   0  -9    4.56    5.75
  -6   0   9    3.37    2.43
   4   0  -9    1.89    1.88
   4   0  -9   -7.78    5.61
   4   0  -9   -7.02    5.52
  -4   0   9   -0.92    1.91
   4   0  -9   -0.79    2.88
  -4   0   9    1.33    1.16
  -4   0   9    0.83    0.58
   4   0  -9    1.28    3.91
  -2   0   9   -0.68    0.54
   2   0  -9   -0.10    3.08
  -2   0   9   -2.01    1.26
   2   0  -9   -5.46    5.43
   2   0  -9    4.76    5.43
   2   0  -9    2.01    3.96
  -2   0   9   -1.25    1.83
   0   0   9    0.24    0.52
   0   0  -9    3.36    5.57
   0   0  -9    2.82    2.94
   0   0  -9   -0.72    5.98
   0   0  -9   -0.37    3.37
   0   0   9   -0.62    1.85
   2   0   9   -0.43    2.00
  -2   0  -9   -1.38    2.64
  -2   0  -9   -3.04    5.23
   2   0   9    0.97    0.54
  -2   0  -9   -4.62    5.75
  -2   0  -9   -0.60    3.14
  -4   0  -9   -6.70    3.10
   4   0   9    0.08    0.61
  -4   0  -9    7.34    7.37
   4   0   9   -3.06    1.99
  -4   0  -9    6.70    5.36
  -4   0  -9    1.90    2.58
   6   0   9    1.93    2.34
  -6   0  -9    3.16    2.85
   6   0   9    1.16    0.68
  -6   0  -9  -13.95    7.44
  -6   0  -9   -0.91    3.66
  -6   0  -9   -0.41    6.16
  -8   0  -9   -3.25    2.95
  -8   0  -9    3.68    7.96
  -8   0  -9    5.80    3.43
   8   0   9    1.70    0.86
  -8   0  -9   -0.49    3.95
   8   0   9   -2.31    2.30
  -8   0  -9   -6.74    8.63
 -10   0  -9    3.93    8.71
  10   0   9    1.75    2.76
 -10   0  -9   -1.68    3.75
 -10   0  -9   -7.80    9.43
 -10   0  -9    0.64    4.58
 -10   0  -9    4.09    3.56
  10   0   9   -0.36    1.03
 -12   0  -9    2.74    9.86
 -12   0  -9    2.84    5.67
  12   0   9   -7.11    3.14
 -12   0  -9   -6.37    4.17
 -12   0  -9    8.32   10.82
 -12   0  -9   -0.75    4.57
  14   0   9    0.69    4.04
 -14   0  -9   -1.66    5.49
 -14   0  -9   -5.12   12.21
 -14   0  -9  -17.70   12.02
 -14   0  -9   -0.50    4.54
 -16   0  -9  -14.75   14.40
 -16   0  -9   -4.17    5.86
  16   0   9    3.42    5.45
 -16   0  -9    1.71   15.19
 -17  -1   9   19.97    6.17
  17  -1  -9   19.52    5.83
  17  -1  -9   15.84    4.27
  17  -1  -9   16.21    6.80
  17   1  -9   18.03    5.28
  17   1  -9   16.21    4.15
 -17   1   9   14.58    2.55
  15  -1  -9   10.51    3.83
  15  -1  -9    7.58    5.17
 -15  -1   9   18.50    5.64
  15  -1  -9   18.20    6.99
 -15  -1   9   14.35    1.97
 -15   1   9   20.76    4.58
  15   1  -9   16.63    5.11
 -15   1   9   18.55    2.36
  15   1  -9   16.55    3.60
  15   1  -9   11.80    5.74
 -13  -1   9   25.36    4.64
  13  -1  -9   25.81    6.54
 -13  -1   9   31.39    2.76
  13  -1  -9   16.29    4.12
  13  -1  -9   28.49    7.84
  13   1  -9   27.60    4.49
  13   1  -9   36.36    7.66
  13   1  -9   27.13    5.96
 -13   1   9   32.86    4.39
  11  -1  -9   23.16    7.06
  11  -1  -9   21.90    5.92
  11  -1  -9   27.41    4.84
 -11  -1   9   31.54    4.95
 -11  -1   9   26.97    3.79
 -11  -1   9   29.35    2.70
  11   1  -9   21.14    6.56
 -11   1   9   30.04    3.91
  11   1  -9   30.45    4.34
  11   1  -9   24.82    5.81
 -11   1   9   27.81    2.78
   9  -1  -9   23.33    4.91
   9  -1  -9   18.57    6.37
  -9  -1   9   25.26    3.54
  -9  -1   9   27.99    2.63
  -9  -1   9   25.20    4.23
   9  -1  -9   20.35    7.06
  -9   1   9   22.32    3.12
   9   1  -9   23.39    3.71
   9   1  -9   27.52    7.08
   9   1  -9   30.22    5.97
  -9   1   9   29.19    4.33
  -9   1   9   28.47    2.67
  -7  -1   9    4.90    1.55
   7  -1  -9    3.20    3.30
  -7  -1   9    3.61    1.20
  -7  -1   9    5.85    2.48
   7  -1  -9    3.69    2.32
   7  -1  -9    2.67    5.51
  -7   1   9   -0.37    2.20
  -7   1   9    1.48    1.40
   7   1  -9   -0.32    2.78
  -7   1   9    4.90    0.94
   7   1  -9    7.58    2.24
  -7   1   9    2.47    1.07
   7   1  -9    2.56    4.80
   5  -1  -9   20.51    7.45
   5  -1  -9    9.89    5.08
   5  -1  -9   23.78    7.26
   5  -1  -9   20.99    4.92
  -5  -1   9   23.80    3.97
  -5  -1   9   20.19    1.74
   5  -1  -9   22.42    3.54
  -5  -1   9   13.64    2.30
   5   1  -9   13.76    5.08
   5   1  -9    6.22    5.81
  -5   1   9   20.67    3.53
  -5   1   9   23.14    2.33
   5   1  -9   15.53    2.96
   5   1  -9   28.76    5.43
  -5   1   9   20.58    1.91
  -5   1   9   22.94    2.65
  -3  -1   9   13.71    2.04
   3  -1  -9   10.94    5.83
   3  -1  -9    7.76    3.87
   3  -1  -9    1.59    5.71
   3  -1  -9   12.45    5.00
  -3  -1   9    8.76    2.73
  -3  -1   9   10.08    1.18
  -3   1   9   13.54    2.10
  -3   1   9   11.12    1.33
   3   1  -9   16.51    7.12
   3   1  -9    2.69    3.92
   3   1  -9   10.98    2.45
   3   1  -9    5.64    3.30
  -3   1   9   11.09    2.79
   3   1  -9    2.36    5.84
   1  -1  -9    4.37    5.26
   1  -1  -9    2.69    4.12
   1  -1  -9    0.30    5.32
   1  -1  -9   -5.02    2.61
  -1  -1   9   -0.41    2.17
  -1  -1   9    0.25    0.54
   1   1  -9    1.03    3.24
  -1   1   9    2.19    1.93
   1   1  -9    1.99    2.91
   1   1  -9    2.90    5.02
  -1   1   9    1.42    0.63
   1   1  -9    3.34    5.79
  -1   1   9    0.99    1.24
  -1  -1  -9   51.23    9.27
  -1  -1  -9   62.80    6.92
   1  -1   9   49.76    3.84
  -1  -1  -9   35.42    8.87
   1  -1   9   48.72    5.51
  -1  -1  -9   32.92    7.22
  -1   1  -9   42.83    6.64
   1   1   9   53.63    3.96
  -1   1  -9   54.77    7.97
   1   1   9   50.78    5.46
  -1   1  -9   69.56   11.55
  -1   1  -9   68.20   11.68
   3  -1   9    7.30    0.99
  -3  -1  -9    5.10    5.22
  -3  -1  -9   -1.46    5.39
   3  -1   9    8.06    2.62
  -3  -1  -9    7.24    4.12
  -3  -1  -9   10.26    3.24
  -3   1  -9    6.47    3.86
  -3   1  -9   -2.26    6.06
   3   1   9    6.16    2.36
  -3   1  -9    7.54    3.05
  -3   1  -9    4.41    6.26
   3   1   9    8.22    1.16
  -5  -1  -9   54.61    6.73
   5  -1   9   63.68    4.43
  -5  -1  -9   49.34   10.27
   5  -1   9   58.19    6.24
  -5  -1  -9   38.54    7.60
  -5  -1  -9   52.19   10.46
   5   1   9   54.25    5.95
  -5   1  -9   61.73   12.34
  -5   1  -9   52.61    8.47
  -5   1  -9   64.25    7.12
  -5   1  -9   64.58   12.58
   5   1   9   55.69    4.47
  -7  -1  -9   34.16    9.31
  -7  -1  -9   43.72    5.59
   7  -1   9   32.02    2.93
   7  -1   9   30.66    4.51
  -7  -1  -9   35.35    5.48
  -7  -1  -9   38.44    7.00
  -7  -1  -9   38.06   11.02
   7   1   9   32.03    2.95
   7   1   9   43.67    4.95
   7   1   9   37.05    2.93
  -7   1  -9   23.57    9.99
  -7   1  -9   29.35    5.15
  -7   1  -9   21.75    6.15
  -9  -1  -9    9.58    5.09
   9  -1   9   11.11    1.51
  -9  -1  -9   12.83    4.50
  -9  -1  -9   -1.41    8.15
  -9  -1  -9   17.69    4.00
   9  -1   9   15.56    3.51
  -9  -1  -9    0.17    9.02
  -9   1  -9    3.44    4.73
  -9   1  -9    7.30    4.60
   9   1   9   11.82    1.45
  -9   1  -9    9.74    3.87
   9   1   9   13.07    3.22
  -9   1  -9    4.87    9.35
  -9   1  -9    7.53    9.75
   9   1   9   10.01    1.66
 -11  -1  -9    1.21    9.28
 -11  -1  -9   -0.19    6.66
  11  -1   9    4.98    3.21
 -11  -1  -9    6.25    4.32
 -11  -1  -9    8.72    4.17
 -11  -1  -9   -4.93    9.03
 -11   1  -9   -1.34   10.22
 -11   1  -9    5.77    5.07
  11   1   9    4.31    1.10
  11   1   9    5.70    3.17
  11   1   9    3.93    1.40
 -11   1  -9    2.27    4.95
 -11   1  -9   -0.73    3.90
 -11   1  -9   -5.32    9.44
 -13  -1  -9   21.26    8.56
 -13  -1  -9   20.63   13.15
 -13  -1  -9   23.13    5.82
 -13  -1  -9   36.01   12.81
  13  -1   9   29.08    5.01
 -13   1  -9   21.92   13.46
  13   1   9   28.83    3.16
 -13   1  -9   30.88    6.88
 -13   1  -9   30.03    6.12
  13   1   9   30.33    5.18
 -13   1  -9   20.05    7.61
 -13   1  -9   43.31   14.27
 -15  -1  -9   11.35    9.49
  15  -1   9    4.97    4.51
 -15  -1  -9    0.48   13.73
 -15  -1  -9    6.50    5.64
 -15  -1  -9    4.43   13.80
 -15  -1  -9    1.41    7.09
 -15   1  -9   -0.02    5.59
 -15   1  -9   10.93   14.77
  15   1   9    5.75    4.99
  15   1   9   -0.51    1.59
 -15   1  -9   -0.90   14.06
  18  -2  -9    8.54    5.49
 -18  -2   9   -1.44    6.67
  18  -2  -9   13.58    4.36
  18   2  -9   11.16    5.30
  18   2  -9    3.59    3.49
 -18   2   9    3.79    2.48
 -16  -2   9   16.86    5.71
  16  -2  -9   14.87    4.17
  16  -2  -9   16.36    6.69
  16  -2  -9   15.60    5.58
  16   2  -9    9.87    4.90
 -16   2   9   17.58    2.53
  16   2  -9   20.31    4.05
  14  -2  -9   95.96    9.08
 -14  -2   9   90.32    6.66
 -14  -2   9   71.79    9.85
  14  -2  -9   85.54   13.05
  14  -2  -9   86.65   11.21
  14   2  -9   90.35    8.39
  14   2  -9  102.67   11.71
 -14   2   9   83.21    6.96
 -14   2   9   82.61   10.17
  14   2  -9   80.86    9.98
 -12  -2   9   12.16    3.31
  12  -2  -9   19.04    7.67
  12  -2  -9   22.46    6.27
  12  -2  -9   19.90    4.42
 -12  -2   9   18.37    2.08
  12   2  -9   29.45    7.15
 -12   2   9   16.87    2.20
  12   2  -9   16.07    4.86
  12   2  -9   16.10    3.39
 -12   2   9   17.80    3.43
 -10  -2   9    4.30    2.16
 -10  -2   9    2.35    2.75
  10  -2  -9    3.06    5.27
  10  -2  -9    2.74    2.88
 -10  -2   9    1.66    1.02
  10  -2  -9   11.37    6.74
  10   2  -9   -1.23    2.02
  10   2  -9    7.53    4.22
  10   2  -9    1.16    4.58
 -10   2   9    2.70    1.85
 -10   2   9    1.14    0.96
   8  -2  -9   40.98    5.50
   8  -2  -9   33.10    6.63
  -8  -2   9   29.50    4.51
   8  -2  -9   17.85    7.53
  -8  -2   9   35.71    3.74
  -8  -2   9   32.13    2.98
  -8   2   9   28.93    4.17
   8   2  -9   31.58    7.41
   8   2  -9   23.40    5.98
  -8   2   9   25.86    3.35
  -8   2   9   32.23    2.74
   8   2  -9   19.31    3.32
  -8   2   9   34.50    3.04
   6  -2  -9   67.02   12.23
   6  -2  -9   96.42   13.00
   6  -2  -9  105.22   11.01
  -6  -2   9  108.00    9.24
  -6  -2   9  107.74    8.00
   6  -2  -9  103.28    9.21
  -6   2   9  102.29    8.99
   6   2  -9  106.51   12.19
  -6   2   9  102.74    7.63
   6   2  -9   97.63   10.16
   6   2  -9  105.47    8.54
  -6   2   9  105.43    8.02
   4  -2  -9    8.54    3.37
  -4  -2   9   10.74    2.98
  -4  -2   9   13.95    2.09
   4  -2  -9   15.82    5.66
   4  -2  -9   15.30    3.08
   4  -2  -9   13.54    6.34
   4  -2  -9    8.63    5.83
  -4   2   9   13.86    2.98
  -4   2   9   14.61    2.12
   4   2  -9   14.12    3.92
  -4   2   9   11.80    1.45
   4   2  -9    7.74    4.58
   4   2  -9    8.39    2.19
  -4   2   9   15.70    1.80
   4   2  -9   11.62    5.98
   2  -2  -9    3.82    3.83
   2  -2  -9   -1.16    5.19
  -2  -2   9    6.45    0.73
  -2  -2   9    4.76    2.29
   2  -2  -9    9.51    5.81
   2  -2  -9   11.09    3.73
  -2   2   9    3.92    2.11
   2   2  -9    8.25    1.98
   2   2  -9   11.50    6.35
  -2   2   9    3.91    0.90
  -2   2   9    6.19    1.63
   2   2  -9    2.87    4.25
   2   2  -9    5.86    3.27
   2   2  -9    5.05    6.00
   0  -2  -9    5.98    5.71
   0  -2  -9    3.66    3.95
   0  -2  -9    0.73    2.83
   0  -2  -9    8.41    5.65
   0  -2   9    0.15    0.47
   0  -2   9    0.89    1.84
   0   2  -9   -0.94    2.73
   0   2   9   -2.35    1.18
   0   2   9    6.33    2.30
   0   2  -9   -0.71    5.64
   0   2  -9   -5.02    3.04
   0   2  -9    3.50    5.40
   0   2   9    0.92    0.70
  -2  -2  -9   30.47    8.33
   2  -2   9   48.57    3.62
   2  -2   9   48.61    5.42
  -2  -2  -9   45.92    8.34
  -2  -2  -9   40.84    6.13
  -2  -2  -9   45.42    8.80
  -2   2  -9   57.49   11.22
   2   2   9   46.18    3.78
  -2   2  -9   61.62    6.86
  -2   2  -9   38.55    7.02
  -2   2  -9   72.79   11.37
   2   2   9   49.50    5.30
  -4  -2  -9  131.91   12.30
  -4  -2  -9  135.58   11.91
   4  -2   9  144.12   11.71
   4  -2   9  143.73   10.14
  -4  -2  -9  116.70   13.51
  -4  -2  -9  125.66   15.45
   4   2   9  153.29   11.34
  -4   2  -9  129.54   12.41
   4   2   9  139.37   10.27
  -4   2  -9  139.25   16.48
   4   2   9  156.50   10.29
  -4   2  -9  136.21   13.76
  -6  -2  -9    6.21    2.83
  -6  -2  -9    1.55    3.53
  -6  -2  -9    1.65    6.86
   6  -2   9   -2.79    2.05
  -6  -2  -9    0.13    6.38
  -6  -2  -9    3.13    2.52
   6  -2   9   -0.45    0.69
  -6   2  -9   -3.34    2.87
   6   2   9   -0.97    2.27
  -6   2  -9   -3.45    7.57
   6   2   9    1.06    0.85
   6   2   9    0.64    0.75
  -6   2  -9    1.20    3.77
  -6   2  -9    3.32    7.00
  -8  -2  -9   10.66    3.13
   8  -2   9   13.59    3.32
  -8  -2  -9    7.28    3.36
  -8  -2  -9    2.04    7.71
  -8  -2  -9   18.14    9.70
   8   2   9   13.74    2.12
   8   2   9   11.46    1.51
  -8   2  -9    5.55    4.52
  -8   2  -9    4.95    9.10
  -8   2  -9   16.04    4.02
   8   2   9   14.84    3.11
  -8   2  -9   17.08    9.52
 -10  -2  -9   69.36   15.06
 -10  -2  -9   87.14    9.54
 -10  -2  -9   61.18   13.84
 -10  -2  -9   69.30   11.97
  10  -2   9   89.05    8.67
 -10  -2  -9   76.68    9.21
  10   2   9   81.73    6.80
 -10   2  -9   79.14   15.84
  10   2   9   91.46    8.39
 -10   2  -9   72.88   15.08
  10   2   9   97.75    6.54
 -10   2  -9   88.63    9.43
 -12  -2  -9   26.71    8.55
 -12  -2  -9   27.20    6.28
 -12  -2  -9   29.79   12.06
 -12  -2  -9   26.58    6.22
  12  -2   9   27.11    4.88
 -12  -2  -9   37.56   13.35
 -12   2  -9   45.63   13.17
 -12   2  -9   18.59    6.56
 -12   2  -9   41.86   14.03
  12   2   9   29.23    2.83
  12   2   9   30.68    3.24
 -12   2  -9   14.07    6.70
  12   2   9   27.61    4.73
 -12   2  -9   25.24    5.62
 -14  -2  -9   -4.53    7.88
 -14  -2  -9    4.86    5.84
 -14  -2  -9   -9.75   10.62
 -14  -2  -9  -11.75   12.06
 -14  -2  -9   -4.71    4.86
  14  -2   9   -0.29    4.09
  14   2   9   -1.25    1.53
 -14   2  -9    6.42   12.95
 -14   2  -9  -10.81   12.63
 -14   2  -9    4.74    5.76
  14   2   9    5.43    4.44
 -16  -2  -9   12.03   10.61
 -16  -2  -9   20.23   15.37
 -16  -2  -9   18.60    6.90
  16  -2   9   13.57    5.97
 -16  -2  -9    6.98    7.58
 -16  -2  -9   31.55   16.32
  16   2   9    9.29    2.47
 -16   2  -9   -3.64   16.69
 -16   2  -9   16.35   15.91
 -16   2  -9   22.09    7.64
  17  -3  -9   40.78    8.82
  17  -3  -9   44.67    6.09
  17  -3  -9   40.42    7.37
  17   3  -9   37.37    6.96
  17   3  -9   39.21    5.32
 -17   3   9   25.50    3.65
 -15  -3   9   29.72    6.10
  15  -3  -9   23.03    4.50
  15  -3  -9   18.53    6.35
  15  -3  -9   20.47    7.31
 -15   3   9   25.80    3.04
  15   3  -9   22.09    4.18
  15   3  -9   29.23    5.77
  13  -3  -9   30.68    7.25
  13  -3  -9   22.49    7.84
 -13  -3   9   22.74    2.41
  13  -3  -9   33.07    5.28
 -13  -3   9   17.23    4.88
 -13   3   9   23.34    2.97
  13   3  -9   20.28    3.59
  13   3  -9   34.78    7.14
  13   3  -9   29.73    5.38
  11  -3  -9   63.95    9.50
  11  -3  -9   67.24    7.36
  11  -3  -9   69.80   12.24
 -11  -3   9   46.30    6.72
 -11  -3   9   60.52    6.32
 -11  -3   9   54.13    4.62
 -11   3   9   62.78    5.10
  11   3  -9   60.98    9.39
  11   3  -9   54.44    7.97
  11   3  -9   58.98    6.16
   9  -3  -9  137.54   17.23
  -9  -3   9  151.93   11.98
  -9  -3   9  149.07   13.07
   9  -3  -9  147.37   15.91
   9  -3  -9  157.97   13.23
  -9  -3   9  155.07   11.24
  -9   3   9  158.09   11.30
  -9   3   9  154.04   11.44
   9   3  -9  157.05   15.12
   9   3  -9  150.00   13.99
   7  -3  -9   61.71    8.35
   7  -3  -9   53.92   10.83
  -7  -3   9   56.67    4.80
   7  -3  -9   63.86    9.69
   7  -3  -9   47.63    6.39
  -7  -3   9   63.24    5.32
  -7  -3   9   58.68    6.71
  -7   3   9   54.37    4.56
  -7   3   9   57.97    6.14
   7   3  -9   56.22    9.07
   7   3  -9   62.14    5.51
  -7   3   9   53.30    4.78
   5  -3  -9   94.44    8.34
   5  -3  -9  104.46   12.64
   5  -3  -9   86.91   12.37
  -5  -3   9   89.45    6.99
  -5  -3   9   80.93    8.28
   5  -3  -9   86.76    9.93
  -5   3   9   84.20    7.74
  -5   3   9   85.15    6.58
   5   3  -9   66.75   11.33
  -5   3   9   93.60    7.03
   5   3  -9   90.45    9.25
   5   3  -9   84.41    7.25
  -3  -3   9   93.40    8.47
   3  -3  -9   99.42   12.13
   3  -3  -9   99.58   12.75
   3  -3  -9  107.90   10.24
   3  -3  -9   70.81   11.01
   3   3  -9   91.17    7.60
  -3   3   9   91.82    7.52
   3   3  -9  101.73    9.56
  -3   3   9   98.55    8.23
   3   3  -9   76.14   12.66
   3   3  -9  100.34   10.96
  -3   3   9   94.52    7.04
   1  -3  -9  142.64   16.11
   1  -3  -9  124.22   15.54
  -1  -3   9  164.82   10.47
  -1  -3   9  134.33   12.02
   1  -3  -9  142.62   13.21
  -1   3   9  143.12   10.79
  -1   3   9  151.55   11.80
   1   3  -9  196.07   17.68
  -1   3   9  148.33   11.38
   1   3  -9  138.52   14.15
   1   3  -9  122.91   15.62
   1   3  -9  153.92   13.11
  -1  -3  -9   30.73    7.05
  -1  -3  -9   40.31    5.84
   1  -3   9   42.78    3.04
  -1  -3  -9   24.68    7.84
   1  -3   9   40.19    5.01
  -1  -3  -9   33.52    8.18
   1   3   9   42.12    3.35
  -1   3  -9   42.14    9.33
  -1   3  -9   36.71    5.74
  -1   3  -9   34.86    6.71
   1   3   9   43.53    5.15
  -1   3  -9   40.26    8.96
   1   3   9   39.89    4.10
  -3  -3  -9   24.02    4.55
  -3  -3  -9    9.08    6.48
   3  -3   9   22.03    3.78
   3  -3   9   20.25    1.89
  -3  -3  -9   12.92    6.66
  -3  -3  -9   25.99    6.18
  -3   3  -9   25.68    4.69
  -3   3  -9   27.62    6.01
   3   3   9   20.72    2.12
  -3   3  -9   13.98    6.69
   3   3   9   22.99    2.29
   3   3   9   25.54    3.33
   5  -3   9  124.53   10.97
   5  -3   9  134.23    9.30
  -5  -3  -9  129.01   11.58
  -5  -3  -9  134.28   14.88
  -5  -3  -9  123.10   10.88
  -5  -3  -9  107.99   15.61
   5   3   9  136.07    9.46
   5   3   9  134.02    9.50
  -5   3  -9  128.83   17.90
  -5   3  -9  139.42   11.67
   5   3   9  104.93   10.64
  -5   3  -9  117.58   12.50
  -5   3  -9  119.29   16.19
  -7  -3  -9   72.65   12.96
  -7  -3  -9   60.17   13.21
   7  -3   9   91.01    8.64
  -7  -3  -9   97.95    8.76
  -7  -3  -9   95.20   12.15
  -7  -3  -9   87.75    8.96
   7   3   9   96.78    8.21
   7   3   9   95.85    6.86
  -7   3  -9   62.70   15.34
  -7   3  -9   87.19    9.16
   7   3   9   90.49    6.98
  -7   3  -9   94.76   16.40
  -9  -3  -9   19.13    9.02
  -9  -3  -9   17.64    7.55
   9  -3   9   17.29    3.90
  -9  -3  -9   17.35    4.61
  -9  -3  -9   19.23    9.02
   9   3   9   24.85    2.39
   9   3   9   19.60    2.48
  -9   3  -9   22.65    5.44
   9   3   9   20.77    3.78
  -9   3  -9   15.86   10.80
  -9   3  -9   32.02   11.93
  -9   3  -9   27.82    5.00
 -11  -3  -9    8.17    9.41
  11  -3   9    2.64    3.32
 -11  -3  -9    1.40    4.00
 -11  -3  -9    3.91    8.59
 -11  -3  -9    0.65    6.26
 -11  -3  -9    1.98    4.37
 -11   3  -9    2.97    5.01
 -11   3  -9    9.55   11.03
  11   3   9    0.22    3.17
 -11   3  -9  -10.19   10.02
 -11   3  -9    3.55    4.31
  11   3   9    5.31    1.26
  11   3   9    2.31    1.34
 -13  -3  -9   28.07   14.16
 -13  -3  -9   53.07    8.85
 -13  -3  -9   46.87   10.81
 -13  -3  -9   72.57    9.45
  13  -3   9   64.14    8.20
 -13  -3  -9   81.43   17.08
 -13   3  -9   70.21   16.68
 -13   3  -9   50.52   15.58
  13   3   9   58.53    5.51
  13   3   9   69.64    5.15
  13   3   9   64.21    7.36
 -15  -3  -9   19.32   14.98
 -15  -3  -9   51.27    9.17
 -15  -3  -9   49.15   15.54
 -15  -3  -9   44.98   12.10
 -15  -3  -9   52.08    9.30
  15   3   9   48.96    4.86
 -15   3  -9   66.38   18.46
 -15   3  -9   49.12   17.45
  16  -4  -9   68.95    8.45
  16  -4  -9   64.57    9.51
 -16  -4   9   55.67    9.00
  16  -4  -9   78.86   11.46
  16   4  -9   66.03    9.13
  16   4  -9   71.41    7.62
 -16   4   9   70.83    6.16
  14  -4  -9   53.54    9.23
  14  -4  -9   69.86    8.37
 -14  -4   9   75.63    8.85
  14  -4  -9   67.34   11.26
  14   4  -9   70.25    8.75
 -14   4   9   65.45    5.75
  14   4  -9   71.44    6.97
 -12  -4   9   68.94    7.90
  12  -4  -9   76.17   10.85
 -12  -4   9   61.88    8.32
  12  -4  -9   65.71   12.56
  12  -4  -9   79.07    8.49
 -12  -4   9   68.90    5.26
  12   4  -9   84.16   10.26
  12   4  -9   76.03    6.98
 -12   4   9   66.21    5.85
  12   4  -9   65.86    8.53
 -10  -4   9   -0.69    3.09
  10  -4  -9    0.36    3.06
 -10  -4   9    2.89    1.00
  10  -4  -9    4.98    7.19
 -10  -4   9    5.03    2.21
  10  -4  -9   -7.18    5.39
 -10   4   9    3.73    1.41
  10   4  -9    1.38    3.38
  10   4  -9    0.49    4.07
  -8  -4   9  128.66    9.68
   8  -4  -9  137.28   11.94
  -8  -4   9  135.80   10.50
  -8  -4   9  119.55   11.52
   8  -4  -9  112.74   16.13
   8   4  -9  143.43   12.52
  -8   4   9  121.56    9.69
   8   4  -9  123.11   13.17
   8   4  -9  144.33   10.31
   6  -4  -9  253.86   22.07
   6  -4  -9  267.33   22.10
   6  -4  -9  245.66   19.00
  -6  -4   9  251.88   18.99
   6  -4  -9  249.01   20.58
  -6  -4   9  238.06   17.52
   6  -4  -9  210.89   22.86
  -6   4   9  212.71   17.49
   6   4  -9  263.56   21.04
  -6   4   9  228.75   17.32
   6   4  -9  253.58   19.65
   4  -4  -9  311.00   23.20
   4  -4  -9  279.16   24.81
   4  -4  -9  300.90   24.78
  -4  -4   9  280.08   21.41
  -4   4   9  273.21   20.02
  -4   4   9  265.08   20.79
   4   4  -9  277.81   20.32
  -4   4   9  270.25   20.35
   2  -4  -9    3.08    5.60
   2  -4  -9    7.90    6.01
  -2  -4   9    2.32    2.16
   2  -4  -9   -1.88    3.00
   2   4  -9    2.46    3.16
  -2   4   9    2.42    1.21
  -2   4   9    3.40    0.95
   2   4  -9    7.39    2.11
   2   4  -9    2.83    2.83
  -2   4   9    5.47    2.16
   2   4  -9    5.64    5.39
   0  -4   9  250.49   19.05
   0  -4  -9  257.73   20.17
   0  -4  -9  226.04   22.16
   0  -4  -9  240.77   22.68
   0   4  -9  253.42   20.88
   0   4   9  232.35   18.72
   0   4   9  245.73   17.81
   0   4  -9  252.61   19.75
   0   4  -9  273.79   23.33
   2  -4   9  298.49   20.49
  -2  -4  -9  223.94   24.67
   2  -4   9  293.73   22.10
  -2  -4  -9  294.75   22.86
  -2   4  -9  269.14   23.43
   2   4   9  296.98   21.36
  -2   4  -9  325.93   21.02
  -2   4  -9  303.14   26.76
   2   4   9  295.57   20.91
  -2   4  -9  301.32   29.02
   2   4   9  281.00   21.36
   2   4   9  279.27   20.81
   4  -4   9   85.66    5.74
  -4  -4  -9   64.63   10.52
  -4  -4  -9   85.86    7.51
  -4  -4  -9   79.42    8.10
  -4  -4  -9   65.39   11.79
  -4  -4  -9   72.15   12.59
   4  -4   9   80.61    7.86
  -4   4  -9   70.53   13.03
  -4   4  -9   80.05    8.17
   4   4   9   74.60    6.01
   4   4   9   70.28    6.99
   4   4   9   77.14    6.02
  -4   4  -9   68.75    8.84
  -4   4  -9   93.06   15.51
   6  -4   9   -2.22    2.39
  -6  -4  -9    7.27    7.51
  -6  -4  -9   -2.68    2.30
  -6  -4  -9    2.99    2.58
  -6  -4  -9    1.61    5.77
  -6  -4  -9   -5.22    6.79
  -6   4  -9    0.48    3.01
   6   4   9   -1.44    0.84
  -6   4  -9   -0.41    3.39
   6   4   9    1.71    1.90
   6   4   9    0.54    0.82
  -6   4  -9   -3.61    8.95
  -8  -4  -9   71.31   10.98
  -8  -4  -9   56.72   12.14
  -8  -4  -9   57.30    6.91
  -8  -4  -9   52.47   11.56
   8  -4   9   61.11    6.88
  -8  -4  -9   63.23    8.06
  -8   4  -9   50.35    7.87
  -8   4  -9   51.11   13.83
  -8   4  -9   64.92   14.17
   8   4   9   62.25    5.09
   8   4   9   55.89    4.82
   8   4   9   62.24    6.08
  -8   4  -9   69.02    7.49
 -10  -4  -9  133.05   12.98
 -10  -4  -9  124.56   12.48
 -10  -4  -9  140.51   19.04
 -10  -4  -9  120.02   18.92
 -10  -4  -9  165.12   17.03
  10  -4   9  135.71   11.76
  10   4   9  123.75   10.22
 -10   4  -9  120.78   11.75
 -10   4  -9  131.39   19.86
  10   4   9  147.75   10.03
 -10   4  -9  134.44   12.40
  10   4   9  142.62   11.47
 -10   4  -9  120.92   19.91
  12  -4   9   84.39    9.23
 -12  -4  -9  103.90   17.98
 -12  -4  -9   59.35   15.34
 -12  -4  -9   79.90   10.25
 -12  -4  -9   90.98   14.34
 -12  -4  -9   90.85   11.02
  12   4   9   91.50    9.06
  12   4   9   93.66    7.10
 -12   4  -9   78.88   16.53
 -12   4  -9   94.35   17.76
  12   4   9   80.42    6.67
 -14  -4  -9   14.22   12.23
 -14  -4  -9    7.37   12.40
 -14  -4  -9   10.62    6.40
  14  -4   9   17.80    5.44
 -14  -4  -9   18.81    6.01
 -14  -4  -9    2.64    8.22
 -14   4  -9    0.71   13.75
  14   4   9   11.83    2.32
 -14   4  -9   19.56   13.52
 -16  -4  -9   15.20   15.41
 -16  -4  -9   37.27   12.81
 -16  -4  -9   27.59    9.08
  16  -4   9   38.86    7.50
 -16  -4  -9   32.33   15.74
 -16  -4  -9   37.78    8.54
 -16   4  -9   13.23   17.70
 -16   4  -9   18.57   17.34
  16   4   9   35.31    4.08
  17  -5  -9   75.48   11.25
  17  -5  -9   77.87    9.96
  17  -5  -9   77.56    8.91
 -17  -5   9   48.65    9.46
  17   5  -9   75.43    7.79
 -17   5   9   62.82    6.33
 -15  -5   9    7.65    5.46
  15  -5  -9   25.74    6.90
  15  -5  -9   11.22    4.43
  15  -5  -9   -0.49    7.32
  15   5  -9    3.92    3.99
  15   5  -9    7.87    3.08
 -15   5   9   11.08    2.26
  13  -5  -9   11.46    4.07
  13  -5  -9   13.76    7.86
 -13  -5   9    4.15    4.00
 -13  -5   9    6.39    4.10
  13  -5  -9   15.23    6.82
  13   5  -9    2.64    2.46
 -13   5   9    9.30    1.93
  13   5  -9    8.35    4.23
 -11  -5   9  251.82   20.61
 -11  -5   9  253.65   20.18
  11  -5  -9  245.49   20.68
  11  -5  -9  225.41   25.27
  11  -5  -9  284.69   23.21
  11   5  -9  233.65   20.69
  11   5  -9  266.80   19.46
 -11   5   9  282.91   19.05
  11   5  -9  284.37   22.51
   9  -5  -9  171.10   16.09
   9  -5  -9  171.91   21.04
  -9  -5   9  196.82   14.01
  -9  -5   9  190.83   16.05
   9  -5  -9  215.95   19.11
   9   5  -9  202.92   16.48
   9   5  -9  203.06   14.66
   9   5  -9  223.66   17.94
  -9   5   9  200.13   14.44
  -9   5   9  173.03   14.26
  -7  -5   9    4.11    3.30
  -7  -5   9    6.55    1.97
   7  -5  -9   11.45    6.54
   7  -5  -9   13.17    6.78
   7  -5  -9    8.01    6.79
  -7  -5   9    8.38    1.63
   7  -5  -9    6.23    3.46
  -7   5   9    6.38    1.64
   7   5  -9    7.07    4.39
  -7   5   9    7.64    1.43
   7   5  -9    9.63    3.96
   7   5  -9    9.70    1.98
  -5  -5   9   14.42    2.19
   5  -5  -9   21.66    7.25
  -5  -5   9   15.84    3.58
   5  -5  -9    8.67    6.65
   5  -5  -9   12.61    4.36
   5  -5  -9   11.68    6.41
  -5   5   9   10.91    1.60
   5   5  -9   18.22    5.48
  -5   5   9   13.59    1.98
   5   5  -9   14.23    3.80
  -3  -5   9  223.28   17.89
   3  -5  -9  238.35   19.32
   3  -5  -9  230.94   21.38
   3  -5  -9  247.78   21.43
  -3   5   9  225.01   16.90
   3   5  -9  233.75   16.58
   3   5  -9  254.33   18.52
  -3   5   9  225.23   17.17
   3   5  -9  179.42   19.76
  -3   5   9  234.12   16.57
   1  -5  -9  316.38   29.61
   1  -5  -9  399.10   30.66
  -1  -5   9  374.38   27.14
   1  -5  -9  355.76   28.12
   1   5  -9  418.35   31.87
  -1   5   9  362.32   26.34
   1   5  -9  309.09   27.18
   1   5  -9  384.10   28.57
  -1   5   9  361.50   25.83
  -1  -5  -9    6.34    5.68
   1  -5   9   18.75    3.57
  -1  -5  -9   15.07    6.08
  -1  -5  -9   13.11    4.05
  -1  -5  -9   12.05    6.01
   1   5   9   12.33    2.34
   1   5   9   15.98    1.86
  -1   5  -9   19.26    1.71
  -1   5  -9   16.75    3.77
   1   5   9   19.45    2.23
  -1   5  -9   17.60    7.18
  -1   5  -9   13.62    4.51
   1   5   9   17.88    2.55
   3  -5   9   23.58    1.83
   3  -5   9   19.63    3.81
  -3  -5  -9   17.69    2.78
  -3  -5  -9   14.70    6.72
  -3  -5  -9   18.44    3.97
  -3  -5  -9   23.45    3.59
  -3  -5  -9   16.21    8.28
  -3  -5  -9   17.99    6.81
   3   5   9   21.52    2.98
  -3   5  -9   20.56   10.30
  -3   5  -9   30.10    9.27
   3   5   9   21.91    2.25
   3   5   9   22.30    2.88
  -3   5  -9   22.45    4.88
  -3   5  -9   19.54    3.98
  -3   5  -9   21.54    2.29
   3   5   9   22.25    2.39
   5  -5   9  197.73   15.27
  -5  -5  -9  165.00   19.10
  -5  -5  -9  172.60   14.77
  -5  -5  -9  207.14   19.04
  -5  -5  -9  151.19   18.76
   5   5   9  179.29   14.47
   5   5   9  199.06   13.72
  -5   5  -9  188.99   15.71
  -5   5  -9  159.82   14.75
   5   5   9  190.14   14.36
  -5   5  -9  209.42   23.00
   5   5   9  212.57   14.09
  -7  -5  -9  284.19   24.92
  -7  -5  -9  283.33   21.08
  -7  -5  -9  226.58   25.11
  -7  -5  -9  258.12   21.74
  -7  -5  -9  239.31   25.70
   7  -5   9  268.54   21.08
  -7   5  -9  255.99   27.63
  -7   5  -9  294.09   20.66
  -7   5  -9  281.48   21.25
   7   5   9  271.78   19.71
   7   5   9  283.65   19.90
   7   5   9  263.55   19.58
  -7   5  -9  280.22   28.37
  -9  -5  -9    3.14    7.17
  -9  -5  -9   20.33    5.06
  -9  -5  -9   13.72    8.63
  -9  -5  -9   22.25    4.87
  -9  -5  -9   18.53    9.92
   9  -5   9   14.88    4.00
  -9   5  -9   20.92    3.95
  -9   5  -9   12.49    3.94
  -9   5  -9   16.36   10.54
   9   5   9   13.29    2.85
  -9   5  -9   19.16   11.76
   9   5   9   13.86    1.89
   9   5   9   11.63    2.15
 -11  -5  -9   31.73    6.42
  11  -5   9   39.15    5.68
 -11  -5  -9   25.78   10.82
 -11  -5  -9   17.55    9.68
 -11  -5  -9   38.69    7.02
 -11  -5  -9   33.82    9.41
  11   5   9   35.66    3.60
 -11   5  -9   19.49   12.51
 -11   5  -9   22.39   12.76
  11   5   9   30.98    3.61
 -13  -5  -9   27.17    9.73
 -13  -5  -9   39.52    7.65
 -13  -5  -9   49.40   14.77
 -13  -5  -9   50.93   14.66
  13  -5   9   40.78    6.20
 -13  -5  -9   36.12    7.16
 -13   5  -9   39.85   15.00
 -13   5  -9   28.09   14.29
  13   5   9   38.90    4.01
  13   5   9   35.11    4.10
 -15  -5  -9  107.96   13.24
 -15  -5  -9   80.16   18.62
 -15  -5  -9  118.63   18.89
  15  -5   9  121.74   12.94
 -15  -5  -9   77.52   19.22
 -15  -5  -9  155.66   15.83
  15   5   9  120.03    9.26
  15   5   9  107.50    8.99
 -15   5  -9  103.79   21.43
 -15   5  -9  103.86   21.18
  16  -6  -9   94.92   13.04
  16  -6  -9   93.67   10.69
 -16  -6   9   90.06   12.46
  16  -6  -9   99.76   15.24
  16   6  -9  103.61    9.18
 -16   6   9   97.13    8.17
 -14  -6   9   97.90   10.93
  14  -6  -9   91.68   14.75
  14  -6  -9  120.43   11.33
  14  -6  -9   91.80   14.06
  14   6  -9  108.04   11.20
 -14   6   9  114.72    8.72
  14   6  -9  115.27    9.51
 -12  -6   9   81.20    8.75
 -12  -6   9   73.70    8.36
  12  -6  -9   74.33    8.77
  12  -6  -9   56.53   12.55
  12  -6  -9   73.20   10.96
  12   6  -9   62.51    8.47
 -12   6   9   71.20    6.19
  12   6  -9   84.76    7.00
  10  -6  -9    4.88    8.39
 -10  -6   9    1.19    2.61
 -10  -6   9    5.63    3.43
  10  -6  -9    4.96    3.53
  10  -6  -9   -1.50    5.78
  10   6  -9    2.91    4.20
 -10   6   9    1.31    1.50
 -10   6   9    2.64    1.57
  10   6  -9    7.80    3.65
  10   6  -9    2.88    2.94
  -8  -6   9  114.39   10.12
   8  -6  -9  131.88   11.45
   8  -6  -9  109.94   13.99
   8  -6  -9  106.26   16.35
  -8  -6   9  112.27   11.03
  -8  -6   9  120.91    8.71
   8  -6  -9  120.32   12.75
   8   6  -9   96.35   10.71
  -8   6   9  126.48    9.17
   8   6  -9  131.99   12.25
  -8   6   9  109.73    8.96
  -6  -6   9  132.53   11.85
   6  -6  -9  119.52   15.76
   6  -6  -9  110.42   16.10
  -6  -6   9  129.11   10.10
   6  -6  -9  148.19   15.44
   6  -6  -9  135.61   12.08
   6   6  -9  157.78   10.17
  -6   6   9  130.15   10.31
   6   6  -9  151.19   13.42
   6   6  -9  133.94   12.05
  -6   6   9  115.01   10.38
   4  -6  -9   92.07   12.43
   4  -6  -9   82.81   10.82
   4  -6  -9   78.12   13.20
  -4  -6   9   89.35    8.78
   4   6  -9   77.59    6.82
   4   6  -9   98.07   10.55
   4   6  -9   97.50    8.92
  -4   6   9   92.18    7.45
  -4   6   9  100.81    7.00
   2  -6  -9   10.21    6.65
   2  -6  -9    7.13    6.29
  -2  -6   9    3.84    2.69
   2  -6  -9    8.68    3.69
   2  -6  -9    3.59    6.63
   2   6  -9   11.50    1.41
  -2   6   9   10.04    1.45
  -2   6   9    8.36    2.03
   2   6  -9   12.12    4.02
   2   6  -9    9.59    3.09
   0  -6  -9   89.93   13.54
   0  -6   9   94.77    9.16
   0  -6  -9   94.71   13.27
   0  -6  -9  110.99   11.07
   0  -6  -9  105.42   13.12
   0   6  -9   97.45    9.15
   0   6  -9  102.27    9.96
   0   6   9  107.96    9.16
   0   6  -9   94.41    7.29
   0   6   9   95.97    7.56
   0   6   9  106.33    7.81
   0   6   9   99.04    8.07
  -2  -6  -9  256.01   18.09
  -2  -6  -9  235.96   23.11
  -2  -6  -9  240.23   22.34
  -2  -6  -9  229.88   22.52
  -2  -6  -9  231.45   18.28
   2  -6   9  231.37   19.10
   2   6   9  259.97   17.88
   2   6   9  264.68   18.30
   2   6   9  257.61   17.93
   2   6   9  240.48   17.75
  -2   6  -9  256.18   18.99
  -2   6  -9  205.40   17.28
  -2   6  -9  281.41   19.96
  -4  -6  -9   92.36    8.58
   4  -6   9   99.58    9.23
  -4  -6  -9  102.65   14.87
  -4  -6  -9   93.67   14.53
  -4  -6  -9  104.09    9.95
   4  -6   9  100.34    7.03
  -4  -6  -9   86.07   12.24
  -4   6  -9  112.88    8.88
   4   6   9   86.01    7.46
  -4   6  -9   98.54    9.46
   4   6   9   94.94    7.63
  -4   6  -9  113.22   15.76
   4   6   9   95.36    7.50
  -6  -6  -9    3.92    8.21
  -6  -6  -9    9.81    3.02
  -6  -6  -9    0.68    8.03
  -6  -6  -9   -3.06    5.30
   6  -6   9    4.55    3.24
  -6  -6  -9    6.88    3.86
  -6   6  -9    2.24    8.82
   6   6   9    7.78    1.34
   6   6   9    1.95    1.60
  -6   6  -9    3.06    3.08
  -6   6  -9    4.92    2.73
   6   6   9    3.33    2.22
  -6   6  -9    4.15    9.14
   6   6   9    4.69    1.37
  -8  -6  -9   93.40   13.23
  -8  -6  -9   70.78    9.36
   8  -6   9   89.03    8.62
  -8  -6  -9   92.11   14.80
  -8  -6  -9   58.64   13.12
  -8  -6  -9   89.13    8.68
   8   6   9   87.64    6.84
   8   6   9   74.63    6.48
  -8   6  -9   66.39   14.62
   8   6   9   60.33    7.35
  -8   6  -9   71.42    7.31
  -8   6  -9  116.44   17.71
  -8   6  -9  100.78    7.95
   8   6   9   77.30    6.49
 -10  -6  -9  216.40   21.10
 -10  -6  -9  171.47   21.95
 -10  -6  -9  205.55   17.28
 -10  -6  -9  196.44   16.84
  10  -6   9  193.69   16.19
 -10  -6  -9  167.11   22.44
 -10   6  -9  174.47   24.84
  10   6   9  186.40   15.30
 -10   6  -9  200.81   24.28
  10   6   9  198.79   14.35
  10   6   9  194.60   14.54
  12  -6   9   63.01    7.72
 -12  -6  -9   50.47    8.11
 -12  -6  -9   30.23   12.35
 -12  -6  -9   59.20   13.60
 -12  -6  -9   73.53   12.93
 -12  -6  -9   58.50    8.52
 -12   6  -9   59.12   15.42
  12   6   9   54.60    5.25
 -12   6  -9   41.13   14.93
  12   6   9   55.50    5.06
  14  -6   9    2.39    5.05
 -14  -6  -9    2.49    9.13
 -14  -6  -9  -12.43   12.15
 -14  -6  -9  -14.59   12.27
 -14  -6  -9   -1.90    6.07
 -14  -6  -9   -3.83    5.74
 -14   6  -9   23.55   15.32
  14   6   9    4.18    2.04
 -14   6  -9   -3.15   13.66
  14   6   9    1.45    1.92
  15  -7  -9   29.02   10.10
  15  -7  -9   18.36    7.78
 -15  -7   9   26.49    6.40
  15  -7  -9   22.46    5.66
  15   7  -9   18.60    3.43
  15   7  -9   26.08    3.92
 -15   7   9   25.44    3.27
  13  -7  -9   34.78   11.34
  13  -7  -9   34.27    5.86
 -13  -7   9   39.94    6.34
  13  -7  -9   36.00    8.90
 -13  -7   9   32.99    5.92
 -13   7   9   36.20    3.98
  13   7  -9   40.40    4.67
  13   7  -9   30.10    5.62
  13   7  -9   39.16    4.47
  11  -7  -9  154.35   17.30
  11  -7  -9  138.21   19.58
  11  -7  -9  159.68   13.77
 -11  -7   9  147.88   13.51
 -11  -7   9  132.38   12.75
  11   7  -9  127.69   13.02
  11   7  -9  155.09   11.66
 -11   7   9  164.28   11.41
  -9  -7   9   84.08    8.49
   9  -7  -9   87.25    9.54
   9  -7  -9   85.12   15.32
  -9  -7   9  113.68    9.85
   9  -7  -9  100.45   12.87
  -9   7   9   76.47    7.07
  -9   7   9   78.46    7.13
   9   7  -9   99.82    7.21
   9   7  -9   88.57    8.97
   7  -7  -9    7.49    6.21
   7  -7  -9    7.07    3.67
   7  -7  -9   -1.26    6.73
  -7  -7   9   12.51    3.90
   7  -7  -9    3.80    7.76
   7  -7  -9   -0.22    7.35
  -7  -7   9    5.74    2.79
  -7  -7   9    7.65    1.68
   7   7  -9    8.70    1.65
   7   7  -9    7.63    4.09
   7   7  -9    5.80    3.58
  -7   7   9    7.32    1.56
  -7   7   9    3.40    1.67
  -5  -7   9   35.14    5.34
   5  -7  -9   53.44    9.87
   5  -7  -9   23.55    8.29
   5  -7  -9   41.51    9.16
   5  -7  -9   37.08    7.45
   5   7  -9   23.35    2.92
   5   7  -9   34.19    5.35
   5   7  -9   41.56    6.77
   5   7  -9   27.84    2.91
  -5   7   9   37.54    3.33
  -5   7   9   33.52    3.41
   3  -7  -9   96.36   12.79
   3  -7  -9   88.52   11.88
   3  -7  -9   62.33   11.36
   3  -7  -9   92.89   10.01
  -3  -7   9   77.51    7.63
  -3   7   9   79.63    5.88
   3   7  -9   66.47    5.51
   3   7  -9   84.69    7.56
   3   7  -9   59.45    5.31
   1  -7  -9  119.91   12.24
   1  -7  -9  108.06   13.99
  -1  -7   9  109.89   10.36
   1  -7  -9  106.98   13.88
   1  -7  -9  104.26   14.34
   1   7  -9  111.23   10.20
  -1   7   9  111.32    9.23
  -1   7   9  101.87    9.21
   1   7  -9  144.45   11.48
   1   7  -9  134.66    8.67
  -1   7   9  116.39   10.51
  -1  -7  -9   62.08   10.92
  -1  -7  -9   71.52   11.78
  -1  -7  -9   68.64   11.88
  -1  -7  -9   73.83    8.86
   1  -7   9   64.65    7.43
   1   7   9   70.80    5.58
  -1   7  -9   66.64    5.06
  -1   7  -9   76.27    7.55
   1   7   9   58.15    6.01
   1   7   9   63.79    6.21
  -1   7  -9   70.27    6.88
  -3  -7  -9    4.33    6.91
  -3  -7  -9   15.81    4.69
  -3  -7  -9   16.31    7.37
  -3  -7  -9   16.56    6.72
  -3  -7  -9   13.97    2.98
   3  -7   9   15.38    3.89
   3   7   9    9.67    2.46
  -3   7  -9   15.54    3.15
  -3   7  -9   22.86    9.03
   3   7   9   19.56    2.93
  -3   7  -9   16.35    3.39
   3   7   9   15.13    2.11
  -5  -7  -9  102.38    9.46
   5  -7   9  130.24   10.55
  -5  -7  -9   92.69   14.84
  -5  -7  -9  118.36   14.43
  -5  -7  -9  119.74   16.39
  -5  -7  -9  120.57   11.12
  -5   7  -9   87.43    8.90
   5   7   9  120.86    8.41
   5   7   9   89.03    8.74
   5   7   9  116.46    9.13
  -5   7  -9   92.85   16.13
  -7  -7  -9  187.74   19.28
   7  -7   9  167.68   14.74
  -7  -7  -9  182.98   20.40
  -7  -7  -9  155.12   20.24
  -7  -7  -9  171.91   14.25
  -7  -7  -9  173.68   15.56
   7   7   9  185.15   13.80
   7   7   9  177.56   13.10
   7   7   9  167.83   13.01
  -7   7  -9  170.92   21.71
   9  -7   9    9.08    3.68
  -9  -7  -9    9.00    4.27
  -9  -7  -9    7.33    7.76
  -9  -7  -9   12.59    8.68
  -9  -7  -9    1.72    8.28
  -9  -7  -9   12.44    4.86
   9   7   9    7.96    2.02
  -9   7  -9   11.57   10.75
   9   7   9    7.79    3.01
   9   7   9    9.56    1.86
  11  -7   9    2.45    4.23
 -11  -7  -9   -3.04    9.03
 -11  -7  -9   14.88    8.52
 -11  -7  -9    3.74    9.72
 -11  -7  -9    5.53    4.80
  11   7   9    7.17    3.43
  11   7   9    8.17    2.10
  11   7   9    3.61    1.85
 -11   7  -9  -12.75   10.61
 -13  -7  -9   70.52    9.79
 -13  -7  -9   66.85   13.50
 -13  -7  -9   51.55   15.34
  13  -7   9   77.63    9.07
 -13   7  -9   62.55   17.10
  13   7   9   75.39    6.20
  13   7   9   66.04    6.24
  13   7   9   58.00    7.51
  14  -8  -9   36.71    6.54
  14  -8  -9   32.76    9.09
  14  -8  -9   38.28   11.46
 -14  -8   9   29.45    6.50
 -14   8   9   34.23    4.00
  14   8  -9   33.56    4.35
  14   8  -9   32.02    4.39
 -12  -8   9    6.24    4.05
  12  -8  -9    1.40    9.87
  12  -8  -9    0.96    8.07
  12  -8  -9    8.73    4.61
 -12  -8   9    9.88    4.63
  12   8  -9    6.43    2.18
 -12   8   9    5.87    1.87
  12   8  -9    9.10    2.44
  12   8  -9   10.96    4.21
 -10  -8   9    0.71    2.86
  10  -8  -9   -1.94    7.21
 -10  -8   9    0.88    3.88
  10  -8  -9   -5.77    7.73
  10  -8  -9   -3.21    3.34
 -10   8   9    0.72    1.49
  10   8  -9   -1.66    1.87
 -10   8   9   -0.35    1.47
  10   8  -9   -2.70    2.64
  10   8  -9   -2.48    1.52
   8  -8  -9    4.91    4.05
  -8  -8   9    1.84    3.86
   8  -8  -9    2.91    5.90
  -8  -8   9    2.99    2.67
   8  -8  -9   -0.44    8.34
   8   8  -9    2.15    1.62
   8   8  -9    4.09    1.42
  -8   8   9    2.74    1.49
   8   8  -9    1.05    2.80
  -8   8   9    3.92    1.58
   6  -8  -9  126.39   15.68
  -6  -8   9  124.40   12.01
  -6  -8   9  132.80    9.91
   6  -8  -9  112.49   16.09
   6  -8  -9  114.29   17.37
   6  -8  -9  115.81   11.76
   6  -8  -9  114.71   14.14
   6   8  -9  138.74   10.14
   6   8  -9  119.83    9.60
  -6   8   9  144.38   10.17
   6   8  -9  155.01   12.00
  -6   8   9  134.35   10.04
   4  -8  -9   57.02   11.01
   4  -8  -9   59.45    9.41
  -4  -8   9   61.45    7.77
   4  -8  -9   57.46   12.57
   4  -8  -9   58.96   11.75
  -4   8   9   66.08    5.62
   4   8  -9   63.96    7.57
   4   8  -9   76.43    5.12
  -4   8   9   62.98    5.78
   4   8  -9   68.99    5.36
   2  -8  -9   -2.86    4.31
   2  -8  -9    4.17    5.84
   2  -8  -9    2.09    6.71
   2  -8  -9    5.07    6.65
  -2  -8   9    2.93    2.85
   2   8  -9    1.88    2.42
  -2   8   9   -0.29    1.59
   2   8  -9    0.92    3.40
  -2   8   9    0.69    1.45
   2   8  -9    1.26    0.95
  -2   8   9    1.50    1.19
   0  -8  -9   74.27   11.45
   0  -8  -9   48.29   10.44
   0  -8  -9   41.32   10.23
   0  -8  -9   64.12    8.52
   0  -8   9   59.33    7.48
   0   8  -9   88.29    7.92
   0   8  -9   68.33    6.86
   0   8   9   66.20    5.77
   0   8   9   66.80    6.09
   0   8  -9   84.82    5.42
   0   8   9   65.98    6.13
  -2  -8  -9   86.35   13.12
  -2  -8  -9   89.49   14.20
  -2  -8  -9   87.47    7.98
  -2  -8  -9   80.81   10.06
  -2  -8  -9   89.10   13.70
   2  -8   9   80.72    9.32
  -2   8  -9  102.77    6.75
   2   8   9   89.48    7.52
  -2   8  -9  100.65    8.81
  -2   8  -9   98.34    8.24
   2   8   9   87.84    7.75
   2   8   9   86.82    7.28
   4  -8   9   23.67    4.80
  -4  -8  -9   26.94    9.03
  -4  -8  -9   28.71    4.15
  -4  -8  -9   27.22    8.55
  -4  -8  -9   25.05    5.72
  -4  -8  -9   17.48    8.90
   4   8   9   29.65    3.39
  -4   8  -9   37.90    4.38
   4   8   9   25.85    3.73
   4   8   9   27.10    3.18
  -6  -8  -9    1.70    5.95
  -6  -8  -9   -0.53    8.23
  -6  -8  -9   -4.95    7.69
  -6  -8  -9   -0.58    3.20
   6  -8   9    2.36    3.49
  -6  -8  -9   -2.06    2.82
  -6   8  -9    0.11    2.12
   6   8   9    0.07    1.36
   6   8   9    0.89    2.24
   6   8   9    1.21    1.28
  -8  -8  -9   -3.00    7.82
  -8  -8  -9   -0.48    6.20
  -8  -8  -9    0.87    8.87
   8  -8   9    5.80    3.71
  -8  -8  -9    1.15    3.90
  -8  -8  -9    4.13    3.92
   8   8   9    5.44    2.72
  -8   8  -9    2.09   10.29
   8   8   9    4.91    1.54
   8   8   9    0.71    1.52
  10  -8   9   36.51    6.26
 -10  -8  -9   20.64   11.43
 -10  -8  -9   39.74   12.40
 -10  -8  -9   39.94    6.53
  10   8   9   28.10    3.60
  10   8   9   39.51    4.95
  10   8   9   33.58    3.88
 -10   8  -9   47.45   13.81
  12  -8   9   93.06   10.92
 -12  -8  -9   67.38   16.39
 -12  -8  -9   86.55   11.40
 -12  -8  -9   76.54   16.83
  12   8   9   98.17    9.39
 -12   8  -9   99.53   19.12
  12   8   9   91.41    7.80
  12   8   9   97.05    7.74
  14  -8   9    6.65    5.83
 -14  -8  -9    3.11   12.66
 -14  -8  -9    9.55    6.86
 -14  -8  -9   10.45   12.80
  14   8   9   -3.50    4.78
 -14   8  -9   18.12   16.22
  14   8   9    5.36    2.34
  14   8   9    5.60    2.50
  13  -9  -9   10.15   10.23
  13  -9  -9    1.57    4.37
  13  -9  -9   -1.60    8.35
 -13  -9   9   -3.43    4.21
  13   9  -9    0.12    2.25
 -13   9   9   -2.84    1.71
  13   9  -9    2.43    2.56
 -11  -9   9   12.84    4.16
  11  -9  -9   15.66    8.67
  11  -9  -9    8.16    4.51
 -11  -9   9    4.07    4.27
  11  -9  -9    4.48   10.33
 -11   9   9    7.93    2.06
  11   9  -9    5.21    2.22
  11   9  -9    6.54    2.33
 -11   9   9    2.82    1.74
   9  -9  -9   15.07    9.67
  -9  -9   9   19.54    4.41
   9  -9  -9   20.70    8.73
   9  -9  -9   19.12    5.32
  -9  -9   9   19.64    5.14
   9   9  -9   21.71    4.71
   9   9  -9   24.39    3.02
  -9   9   9   17.78    2.66
  -9   9   9   22.57    2.89
   9   9  -9   23.55    3.04
   7  -9  -9    6.74    7.96
   7  -9  -9   14.45    4.76
   7  -9  -9   19.76    7.09
  -7  -9   9   15.08    3.76
  -7  -9   9   16.73    4.96
   7  -9  -9   19.14    9.48
   7   9  -9   15.80    2.12
   7   9  -9   20.60    2.58
   7   9  -9   15.25    3.86
  -7   9   9   17.41    2.50
  -7   9   9   18.49    2.64
   5  -9  -9   -3.99    8.51
  -5  -9   9   15.06    4.45
   5  -9  -9    5.53    5.67
   5  -9  -9   -0.66    7.87
   5  -9  -9   12.92    8.48
  -5   9   9    8.51    1.82
  -5   9   9    9.77    2.00
   5   9  -9    8.79    2.14
   5   9  -9    4.00    3.17
  -3  -9   9   26.72    5.41
   3  -9  -9   18.81    7.75
   3  -9  -9   49.17   10.21
   3  -9  -9   17.40    8.23
   3  -9  -9   23.89    6.46
   3   9  -9   29.23    4.98
  -3   9   9   31.07    3.38
  -3   9   9   28.99    3.35
   3   9  -9   29.37    2.91
  -3   9   9   34.21    3.92
   1  -9  -9    7.70    6.16
   1  -9  -9   -3.67    6.23
   1  -9  -9    9.79    4.69
  -1  -9   9    9.61    3.55
   1  -9  -9   -9.41    7.20
  -1   9   9    6.32    1.91
  -1   9   9    2.03    1.94
   1   9  -9    5.60    1.24
  -1   9   9    3.02    1.54
   1   9  -9    6.03    2.50
   1  -9   9   17.07    4.55
  -1  -9  -9   20.68    8.25
  -1  -9  -9   17.76    8.90
  -1  -9  -9   17.35    5.08
  -1  -9  -9   13.38    7.00
  -1   9  -9   16.29    1.78
   1   9   9   15.30    2.32
  -1   9  -9   15.78    3.16
   1   9   9   10.96    2.39
   1   9   9   10.18    2.19
  -3  -9  -9    0.88    6.32
  -3  -9  -9    6.98    2.95
   3  -9   9    6.80    4.02
  -3  -9  -9    2.87    3.90
  -3  -9  -9    9.06    8.48
  -3  -9  -9    6.46    7.84
  -3   9  -9   10.04    2.54
   3   9   9    7.56    1.98
   3   9   9    2.96    1.91
   3   9   9    6.85    1.74
   5  -9   9   41.72    6.14
  -5  -9  -9   21.75   10.38
  -5  -9  -9   28.35    4.48
  -5  -9  -9   30.05   10.75
  -5  -9  -9   29.37    6.20
  -5  -9  -9   28.84    8.92
   5   9   9   35.07    3.89
   5   9   9   37.17    3.65
   5   9   9   28.58    3.94
  -7  -9  -9   -6.80    3.48
  -7  -9  -9   -6.48    7.92
  -7  -9  -9   -3.94    6.63
  -7  -9  -9    4.88    4.33
  -7  -9  -9   -2.21    8.71
   7  -9   9    0.47    3.53
   7   9   9    1.53    1.62
   7   9   9    2.46    2.53
   7   9   9    1.02    1.31
  -9  -9  -9    2.37    9.33
  -9  -9  -9    2.31    9.12
  -9  -9  -9   14.64    5.34
   9  -9   9   10.05    4.82
   9   9   9   13.90    2.46
   9   9   9    7.26    2.20
   9   9   9    9.37    3.22
 -11  -9  -9   -0.25   11.14
 -11  -9  -9    1.38    5.06
 -11  -9  -9   14.66   10.34
  11  -9   9    4.07    4.83
  11   9   9   -0.37    1.94
  11   9   9    0.52    1.84
  11   9   9   -0.51    3.28
 -13  -9  -9    8.08   14.48
 -13  -9  -9   20.43    7.11
 -13  -9  -9   17.72   13.37
  13  -9   9    5.63    6.12
  13   9   9   13.65    2.78
  13   9   9    8.09    4.64
  13   9   9    9.04    2.55
 -12 -10   9    3.62    4.68
  12 -10  -9    4.30   11.52
  12 -10  -9    0.47    9.43
  12 -10  -9   -2.32    4.45
  12  10  -9   -0.70    2.09
 -12  10   9    5.71    1.90
  12  10  -9    5.48    2.69
  10 -10  -9   12.41    8.85
 -10 -10   9    2.29    3.58
 -10 -10   9   -3.48    4.89
  10 -10  -9   -1.13    4.25
  10 -10  -9    0.11    9.71
  10  10  -9    2.60    1.95
 -10  10   9   -2.72    1.47
 -10  10   9    4.94    1.83
  10  10  -9    0.10    2.20
   8 -10  -9    3.05    7.16
   8 -10  -9   -1.61    3.67
   8 -10  -9    1.03    9.23
  -8 -10   9   -0.79    2.90
  -8 -10   9    0.01    4.59
  -8  10   9   -0.50    1.46
  -8  10   9   -2.16    1.57
   8  10  -9   -0.31    1.44
   8  10  -9    2.23    1.59
   6 -10  -9    2.20    8.49
  -6 -10   9    7.59    4.24
   6 -10  -9    9.62    6.70
   6 -10  -9    0.75    3.54
   6 -10  -9   21.03    8.80
   6 -10  -9   25.28    9.13
  -6  10   9    5.25    1.80
   6  10  -9    4.80    1.77
  -6  10   9   10.24    2.00
   6  10  -9    7.35    3.45
   4 -10  -9    9.82    7.83
   4 -10  -9    0.10    8.87
   4 -10  -9   16.26    8.63
  -4 -10   9    2.84    3.93
   4 -10  -9   -6.67    4.88
   4  10  -9    2.18    3.27
  -4  10   9    3.17    1.47
  -4  10   9    5.14    1.70
  -2 -10   9    1.15    3.45
   2 -10  -9    7.36    8.98
   2 -10  -9   13.20    7.47
   2 -10  -9    5.50    5.14
   2 -10  -9   -5.50    7.37
  -2  10   9    4.00    2.03
   2  10  -9    0.97    1.25
  -2  10   9    3.45    1.51
  -2  10   9    2.20    1.70
   2  10  -9    1.53    2.90
   0 -10  -9   -0.54    4.27
   0 -10  -9  -16.11    6.99
   0 -10  -9   10.80    9.01
   0 -10   9    4.37    3.48
   0 -10  -9    7.73    7.34
   0  10  -9    3.11    1.32
   0  10   9    6.64    1.99
   0  10   9    4.63    1.62
   0  10   9    4.63    2.10
  -2 -10  -9   -3.64    6.32
  -2 -10  -9   -5.64    7.34
  -2 -10  -9   16.12    9.03
  -2 -10  -9   -3.32    4.28
   2 -10   9   -1.41    3.80
   2  10   9    1.71    1.32
   2  10   9    2.21    1.83
   2  10   9    0.44    1.65
  -4 -10  -9   -1.20    4.28
  -4 -10  -9    7.81    8.84
  -4 -10  -9    0.09    2.95
  -4 -10  -9   -3.26    8.47
  -4 -10  -9   -2.85    6.90
   4 -10   9   -6.08    4.10
   4  10   9    0.41    1.64
   4  10   9   -1.31    2.09
   4  10   9    3.11    1.61
  -6 -10  -9    5.58    9.28
  -6 -10  -9   -0.84    7.13
  -6 -10  -9    7.12    3.24
  -6 -10  -9   14.24    9.46
  -6 -10  -9    4.05    4.00
   6 -10   9   -8.11    3.92
   6  10   9    2.55    1.89
   6  10   9    0.11    1.46
   6  10   9    3.75    2.24
  -8 -10  -9   -1.09    4.39
  -8 -10  -9    2.01    8.16
  -8 -10  -9   -0.11    9.03
  -8 -10  -9    9.63    9.59
   8  10   9   -0.50    1.60
   8  10   9   -3.28    2.45
   8  10   9   -0.31    1.78
 -10 -10  -9   -3.64    9.46
  10 -10   9   -8.30    4.53
 -10 -10  -9   -3.57    5.18
 -10 -10  -9   11.02   11.09
  10  10   9    1.20    2.12
  10  10   9    3.73    3.10
  10  10   9    4.96    1.96
  12 -10   9    6.77    5.94
 -12 -10  -9   -5.13   13.10
 -12 -10  -9    5.24    6.35
 -12 -10  -9   23.22   12.80
  12  10   9   13.02    4.14
  12  10   9    7.83    2.44
  12  10   9    9.81    2.87
  11 -11  -9   16.46   10.20
 -11 -11   9   10.66    4.73
  11 -11  -9    4.11    4.68
  11 -11  -9    9.34   12.25
  11  11  -9    4.77    2.30
 -11  11   9    5.47    2.12
  11  11  -9    6.43    2.65
 -11  11   9    4.40    2.03
   9 -11  -9    6.15    4.64
   9 -11  -9   -4.73    8.17
  -9 -11   9    3.60    5.29
  -9 -11   9   -0.94    3.55
   9 -11  -9  -11.81    9.77
  -9  11   9    0.44    1.73
   9  11  -9    3.00    1.90
  -9  11   9   -2.04    1.75
  -7 -11   9   11.84    4.13
   7 -11  -9    8.89    9.91
   7 -11  -9   17.85    4.87
   7 -11  -9   23.07    8.54
  -7 -11   9   14.70    5.88
  -7  11   9   22.58    3.06
  -7  11   9   24.33    3.08
   5 -11  -9   11.57   10.43
   5 -11  -9    3.20    9.05
  -5 -11   9   -2.84    4.18
   5 -11  -9    4.86    8.34
   5 -11  -9   -2.29    5.59
  -5  11   9    1.58    1.63
   5  11  -9   -0.29    1.62
  -5  11   9    1.00    1.74
   3 -11  -9   10.21    9.17
   3 -11  -9    0.66    7.72
   3 -11  -9   35.16   11.33
   3 -11  -9   19.74    6.74
  -3 -11   9   22.32    5.14
  -3  11   9   17.00    3.12
  -3  11   9   13.89    2.49
  -3  11   9   13.93    2.37
   1 -11  -9   12.60    8.13
   1 -11  -9    3.20    9.30
  -1 -11   9    6.43    3.97
   1 -11  -9   -3.45    9.51
   1 -11  -9    1.66    4.69
  -1  11   9    7.97    1.99
   1  11  -9    6.34    1.60
  -1  11   9    3.57    2.25
  -1  11   9    7.61    1.93
  -1 -11  -9   -0.94    8.27
  -1 -11  -9    1.69    4.56
   1 -11   9    2.12    3.68
  -1 -11  -9   -4.24    6.67
  -1 -11  -9   -0.86    8.86
   1  11   9   -3.07    1.70
   1  11   9   -0.39    1.50
   1  11   9    3.36    1.92
  -3 -11  -9   21.93    5.79
  -3 -11  -9   15.34    9.50
  -3 -11  -9   19.76    9.23
  -3 -11  -9   14.83    8.84
   3 -11   9   12.47    4.68
   3  11   9    7.74    2.41
   3  11   9    9.38    2.03
   3  11   9    7.31    2.20
   5 -11   9   -3.10    4.26
  -5 -11  -9   -3.83    4.37
  -5 -11  -9   13.01    8.17
  -5 -11  -9    1.84    8.97
  -5 -11  -9    0.14    8.92
  -5 -11  -9    0.96    3.20
   5  11   9   -0.44    1.99
   5  11   9    1.58    2.03
   5  11   9   -1.14    1.63
  -7 -11  -9   -3.47    8.99
   7 -11   9   -6.13    4.96
  -7 -11  -9    4.53    7.78
  -7 -11  -9    2.77    4.62
  -7 -11  -9   13.03   10.31
  -7 -11  -9    3.93    4.47
   7  11   9    3.51    1.89
   7  11   9    5.42    2.60
   7  11   9   -0.76    1.86
   9 -11   9   15.69    5.73
  -9 -11  -9    4.08    5.36
  -9 -11  -9   -0.86   11.62
  -9 -11  -9   -2.21   10.12
   9  11   9    1.82    3.12
   9  11   9    7.01    2.52
   9  11   9    3.05    2.18
  11 -11   9    8.97    5.43
 -11 -11  -9   14.88    6.90
 -11 -11  -9   24.35   13.05
 -11 -11  -9   -0.05   11.49
  11  11   9   15.77    4.10
  11  11   9   14.98    3.09
  11  11   9   10.53    2.82
  10 -12  -9    1.79    9.70
 -10 -12   9    0.75    4.38
  10 -12  -9   -5.80   11.40
 -10 -12   9    0.98    6.79
  10 -12  -9    6.74    4.96
 -10  12   9    0.90    1.97
  10  12  -9   -0.11    2.23
 -10  12   9   -0.75    1.73
  -8 -12   9   -2.81    5.87
  -8 -12   9   12.09    4.31
   8 -12  -9   14.96    9.14
   8 -12  -9   10.75   11.45
   8 -12  -9   10.08    5.00
  -8  12   9    9.33    2.30
   8  12  -9    5.67    2.25
  -8  12   9   12.62    2.46
  -6 -12   9   56.12    8.10
   6 -12  -9   35.57    6.79
  -6 -12   9   45.14    6.76
   6 -12  -9   32.95    9.71
   6 -12  -9   41.33   12.82
   6  12  -9   58.14    4.99
  -6  12   9   49.55    4.94
  -6  12   9   47.99    4.89
  -4 -12   9   11.28    5.37
   4 -12  -9   16.47   10.88
   4 -12  -9    6.73   11.86
   4 -12  -9    8.68    6.73
   4 -12  -9   16.41    9.62
  -4  12   9   10.01    2.13
   4  12  -9   10.58    2.21
  -4  12   9    9.57    2.34
   2 -12  -9   -1.70   10.85
  -2 -12   9    5.37    4.49
   2 -12  -9   -9.73    7.88
   2 -12  -9    4.22   10.45
   2 -12  -9    4.37    5.58
  -2  12   9    3.19    2.39
  -2  12   9    3.99    1.89
  -2  12   9   -1.87    1.66
   0 -12  -9    1.31   10.34
   0 -12  -9   -5.71    4.83
   0 -12   9    0.68    4.28
   0 -12  -9   -0.55    8.26
   0 -12  -9   -1.59   10.06
   0  12   9   -0.61    1.81
   0  12  -9    2.58    1.82
   0  12   9    1.53    1.62
   0  12   9   -3.16    2.04
  -2 -12  -9   58.52   12.35
  -2 -12  -9   23.00   11.30
   2 -12   9   68.03    8.23
  -2 -12  -9   37.14   11.71
  -2 -12  -9   58.92    8.52
   2  12   9   47.45    5.09
   2  12   9   51.25    4.88
   2  12   9   36.23    5.11
  -4 -12  -9   39.19   12.48
  -4 -12  -9   26.56   11.45
  -4 -12  -9    7.06    9.96
  -4 -12  -9   38.10    7.45
   4  12   9   26.58    3.43
   4  12   9   21.44    3.26
   4  12   9   21.32    3.44
  -6 -12  -9    7.14    5.51
  -6 -12  -9   -0.91    9.75
  -6 -12  -9    2.48    9.46
   6 -12   9   13.71    5.95
  -6 -12  -9    5.79    4.65
  -6 -12  -9    3.28    8.40
   6  12   9    6.47    2.62
   6  12   9    4.74    2.10
   6  12   9   10.87    2.70
  -8 -12  -9  -13.37    9.91
  -8 -12  -9    7.65    5.59
   8 -12   9    9.26    6.10
  -8 -12  -9    0.34    9.67
  -8 -12  -9   11.92   11.46
   8  12   9    6.97    3.10
   8  12   9    1.79    2.20
   8  12   9    2.31    2.20
  -9 -13   9   20.41    7.34
   9 -13  -9   10.85   10.84
  -9 -13   9   28.00    6.05
   9 -13  -9   16.97   13.78
   9 -13  -9   20.55    6.27
   9  13  -9   22.23    3.41
  -9  13   9   24.42    3.34
  -9  13   9   19.56    3.22
  -7 -13   9   10.72    4.34
   7 -13  -9   11.72    5.51
   7 -13  -9   28.54    9.56
   7 -13  -9   10.25   12.14
  -7  13   9   19.60    2.93
   7  13  -9   25.99    3.22
  -7  13   9   18.56    2.96
   5 -13  -9   24.96   11.66
  -5 -13   9   13.47    4.81
   5 -13  -9    9.56    7.59
  -5 -13   9   27.92    7.06
  -5  13   9   18.98    3.07
  -5  13   9   23.49    3.16
   5  13  -9   23.60    3.11
   3 -13  -9   30.88   12.45
   3 -13  -9   47.56   15.03
   3 -13  -9   25.30    8.06
  -3 -13   9   43.07    7.72
   3 -13  -9   57.68   14.60
  -3  13   9   44.22    4.66
   3  13  -9   46.81    4.75
  -3  13   9   41.08    4.61
  -3  13   9   38.77    4.93
   1 -13  -9   72.35   14.77
   1 -13  -9   49.63   12.68
   1 -13  -9   52.31    9.08
   1 -13  -9   41.06   13.23
  -1 -13   9   67.95    8.57
  -1  13   9   59.13    6.24
  -1  13   9   54.14    5.57
  -1  13   9   55.20    5.46
  -1 -13  -9   14.35   11.40
  -1 -13  -9   12.24    6.13
  -1 -13  -9    4.91   10.95
  -1 -13  -9   17.05   10.36
   1  13   9   15.32    2.83
   1  13   9   11.08    2.97
   1  13   9    8.84    2.47
   3 -13   9    8.69    5.58
  -3 -13  -9    2.84   10.65
  -3 -13  -9    2.29    8.94
  -3 -13  -9   10.26    6.00
  -3 -13  -9   -6.99   10.51
   3  13   9    8.43    2.63
   3  13   9    6.97    2.28
   3  13   9    9.71    2.50
   5 -13   9   71.90    9.70
  -5 -13  -9   53.71    9.52
  -5 -13  -9   23.67   12.73
  -5 -13  -9   77.71   15.34
  -5 -13  -9   50.67   14.14
   5  13   9   53.48    5.66
   5  13   9   68.12    6.21
   5  13   9   51.50    5.96
   7 -13   9   34.30    8.40
  -7 -13  -9   56.83    9.31
  -7 -13  -9   49.36   15.51
  -7 -13  -9   42.38   12.87
  -7 -13  -9   41.92   14.92
   7  13   9   40.24    4.81
   7  13   9   44.31    5.00
   7  13   9   39.05    5.08
   6 -14  -9   48.81   11.20
   6 -14  -9   39.93    7.64
  -6 -14   9   49.22    9.27
  -6 -14   9   45.52    7.22
   6 -14  -9    6.66   12.41
   6  14  -9   50.52    5.48
  -6  14   9   46.46    5.02
  -6  14   9   44.06    5.22
   4 -14  -9   29.57   15.51
   4 -14  -9   17.43   12.65
   4 -14  -9    9.20    8.48
  -4 -14   9   27.38    7.66
  -4  14   9   25.98    3.66
   4  14  -9   33.52    3.83
  -4  14   9   26.34    3.62
  -2 -14   9    4.22    6.05
   2 -14  -9    1.22    6.82
   2 -14  -9   -1.16   13.52
   2 -14  -9    1.06   10.26
   2 -14  -9    7.97   14.36
  -2  14   9    1.87    2.77
   2  14  -9   -3.91    2.39
  -2  14   9   -0.29    1.89
  -2  14   9    0.39    1.96
   0 -14  -9   10.07    6.50
   0 -14  -9   17.05   10.74
   0 -14  -9   12.43   13.37
   0 -14   9   18.56    6.95
   0 -14  -9   38.54   13.47
   0  14   9   19.24    3.29
   0  14   9   20.04    3.32
   0  14   9   19.35    3.56
  -2 -14  -9   83.56   17.92
  -2 -14  -9   57.89   15.17
  -2 -14  -9   75.45   11.00
   2 -14   9   67.11    9.94
  -2 -14  -9   77.14   15.68
   2  14   9   61.53    6.63
   2  14   9   78.05    7.28
   2  14   9   72.40    6.78
  -4 -14  -9   75.91   17.44
  -4 -14  -9   92.18   17.58
   4 -14   9   63.19   10.43
  -4 -14  -9   99.60   17.98
  -4 -14  -9   79.76   11.84
   4  14   9   78.02    7.59
   4  14   9  107.56    7.86
   4  14   9   77.13    7.87
  16   0 -10  102.25   12.53
 -16   0  10   96.36    8.10
  16   0 -10   99.11   10.52
  16   0 -10  117.57   14.54
 -14   0  10   97.83   10.81
  14   0 -10  145.78   15.53
  14   0 -10  128.26   13.36
 -14   0  10  118.64    9.21
  14   0 -10  133.28   11.48
  12   0 -10    4.63    5.94
 -12   0  10   11.61    3.39
  12   0 -10    2.81    5.06
 -12   0  10    5.72    1.65
  12   0 -10    5.92    3.39
 -10   0  10  113.06    9.93
  10   0 -10  104.09   14.21
 -10   0  10   95.06    8.58
  10   0 -10   81.90   11.87
  10   0 -10  105.58    9.76
 -10   0  10  106.93    7.89
  -8   0  10   86.60    9.42
   8   0 -10   94.41   11.86
   8   0 -10   69.77   12.78
  -8   0  10   88.94    7.26
  -8   0  10  104.54    7.65
   6   0 -10  110.45   14.60
  -6   0  10  101.50   10.16
  -6   0  10  113.99    8.98
  -6   0  10  120.65    8.88
   6   0 -10   87.34   14.85
  -6   0  10  113.61    8.40
   6   0 -10  145.32   15.22
   6   0 -10  122.26   10.05
   4   0 -10   53.83   10.48
   4   0 -10   81.78    9.16
   4   0 -10   75.59    7.22
  -4   0  10   71.99    6.24
  -4   0  10   74.68    7.50
  -4   0  10   76.34    5.55
   4   0 -10  107.98   14.08
   4   0 -10   55.64   11.31
   2   0 -10   59.63   10.61
  -2   0  10   47.47    3.54
   2   0 -10   44.70    7.27
   2   0 -10   52.57   10.88
  -2   0  10   42.35    5.46
  -2   0  10   36.38    4.21
   0   0  10  247.43   16.41
   0   0 -10  217.80   21.86
   0   0  10  243.74   17.82
   0   0 -10  252.45   22.93
   0   0 -10  200.11   20.45
   0   0 -10  205.74   18.89
  -2   0 -10  268.43   26.35
  -2   0 -10  329.37   29.12
   2   0  10  326.09   22.63
  -2   0 -10  336.43   29.87
  -2   0 -10  318.61   25.21
   2   0  10  335.78   23.93
   4   0  10   19.06    3.33
  -4   0 -10   10.26    8.58
  -4   0 -10   17.97    4.42
   4   0  10   14.03    1.69
  -4   0 -10   15.76    8.26
  -4   0 -10   12.87    5.29
  -6   0 -10   82.58   16.81
  -6   0 -10   93.79   12.32
  -6   0 -10  129.19   17.43
   6   0  10  114.11    8.44
   6   0  10  115.18   10.08
  -6   0 -10  132.67   11.35
   8   0  10  198.31   13.45
  -8   0 -10  163.78   22.12
   8   0  10  198.37   15.01
  -8   0 -10  181.80   22.73
  -8   0 -10  185.05   15.87
  -8   0 -10  144.40   17.21
  10   0  10   48.49    4.08
 -10   0 -10   38.38   10.42
 -10   0 -10   33.56    7.27
 -10   0 -10   52.45    7.20
 -10   0 -10   49.97   13.52
 -10   0 -10    9.91   11.79
  10   0  10   44.01    5.96
 -12   0 -10    9.82   11.24
 -12   0 -10    7.90    8.55
 -12   0 -10   13.20   12.15
 -12   0 -10    3.00    5.40
  12   0  10    6.53    1.79
 -12   0 -10   13.25    6.05
  12   0  10    5.66    4.31
  14   0  10    2.15    1.72
 -14   0 -10   13.21   10.15
 -14   0 -10   21.90   14.79
 -14   0 -10    6.59    6.13
 -14   0 -10    0.65   13.74
  14   0  10   -6.98    5.06
 -16   0 -10   72.49   20.28
 -16   0 -10   63.59   11.16
 -16   0 -10   50.90   19.66
  17  -1 -10    0.68    4.37
 -17  -1  10    5.05    5.93
  17  -1 -10    3.28    5.91
  17  -1 -10    7.26    7.21
 -17   1  10    8.09    2.39
  17   1 -10    5.38    5.74
  17   1 -10   10.40    4.11
  15  -1 -10   21.10    7.49
  15  -1 -10    9.72    4.33
 -15  -1  10    9.48    5.12
  15  -1 -10   -4.87    5.10
 -15   1  10   11.02    2.23
  15   1 -10    9.76    6.40
  15   1 -10    9.52    3.80
  15   1 -10    0.83    4.88
 -13  -1  10  140.78   10.20
 -13  -1  10  139.62   11.99
  13  -1 -10  144.71   12.48
  13  -1 -10  135.71   14.72
  13  -1 -10  147.35   16.80
  13   1 -10  152.67   16.10
 -13   1  10  134.54   10.34
  13   1 -10  145.00   14.19
  13   1 -10  140.65   11.98
 -13   1  10  109.22   11.21
 -11  -1  10  108.32    8.24
  11  -1 -10  102.15   14.71
 -11  -1  10  115.33   10.49
  11  -1 -10  132.02   10.62
 -11  -1  10  102.34    9.31
  11  -1 -10  110.23   13.12
  11   1 -10  116.13   10.09
  11   1 -10  115.64   12.59
  11   1 -10  125.94   14.52
 -11   1  10   96.32    9.05
 -11   1  10   96.08    8.63
   9  -1 -10   61.82    7.18
   9  -1 -10   59.10   11.90
   9  -1 -10   46.89    8.33
  -9  -1  10   51.57    6.52
  -9  -1  10   55.45    4.78
  -9  -1  10   61.90    5.57
  -9   1  10   47.36    5.31
  -9   1  10   59.46    4.78
  -9   1  10   56.08    6.83
   9   1 -10   63.38    6.79
   9   1 -10   56.18    8.64
   9   1 -10   45.83    9.48
  -7  -1  10    0.43    1.53
   7  -1 -10    1.11    5.78
   7  -1 -10    2.91    4.72
  -7  -1  10    5.50    2.96
   7  -1 -10    0.00    2.51
  -7  -1  10    1.14    1.29
  -7   1  10    1.07    1.51
   7   1 -10    4.46    4.37
  -7   1  10    4.76    1.41
   7   1 -10    0.41    5.35
  -7   1  10    1.19    0.81
   7   1 -10   -0.69    1.88
  -7   1  10    1.46    2.47
  -5  -1  10  212.94   15.10
   5  -1 -10  250.57   21.99
  -5  -1  10  212.53   15.78
   5  -1 -10  232.34   18.93
   5  -1 -10  221.21   20.93
   5  -1 -10  178.52   20.69
   5  -1 -10  182.29   16.50
  -5  -1  10  204.56   16.88
   5   1 -10  226.33   18.65
   5   1 -10  217.99   20.90
  -5   1  10  187.40   15.71
  -5   1  10  230.71   15.45
   5   1 -10  202.47   20.60
   5   1 -10  241.45   16.58
  -5   1  10  212.43   15.25
  -5   1  10  204.47   16.66
   3  -1 -10  455.32   33.59
   3  -1 -10  482.32   31.78
   3  -1 -10  454.08   35.77
  -3  -1  10  418.96   31.69
  -3  -1  10  377.14   30.84
   3  -1 -10  396.75   35.28
  -3  -1  10  391.66   30.21
   3  -1 -10  433.66   35.81
  -3   1  10  439.77   31.02
   3   1 -10  433.95   31.39
   3   1 -10  451.98   36.10
   3   1 -10  445.23   33.31
   3   1 -10  482.83   36.51
   3   1 -10  396.63   35.00
  -3   1  10  427.54   31.63
  -3   1  10  431.13   30.36
   1  -1 -10   24.88    5.47
   1  -1 -10   32.50    9.36
   1  -1 -10   42.68    9.47
  -1  -1  10   38.41    4.94
  -1  -1  10   34.26    2.71
   1   1 -10   27.04    5.16
  -1   1  10   32.92    3.63
   1   1 -10   46.87    9.44
   1   1 -10   23.89    6.28
  -1   1  10   29.85    4.44
   1   1 -10   43.46    9.36
  -1   1  10   34.53    2.82
  -1  -1 -10   34.09    7.74
  -1  -1 -10   29.82    5.91
   1  -1  10   43.81    3.21
   1  -1  10   37.93    5.13
  -1  -1 -10   46.58    9.63
  -1   1 -10   28.98    6.90
   1   1  10   39.97    5.09
  -1   1 -10   42.63   10.94
  -1   1 -10   38.17    6.81
  -1   1 -10   60.08   11.37
   1   1  10   40.39    3.29
  -3  -1 -10   85.92   11.48
  -3  -1 -10   58.18   12.38
  -3  -1 -10   68.90   13.76
   3  -1  10   99.73    8.64
  -3  -1 -10   99.78    9.89
   3  -1  10  103.83    6.95
  -3   1 -10   83.42   14.79
   3   1  10   88.58    6.96
  -3   1 -10   89.34   11.04
  -3   1 -10  107.38   10.12
  -3   1 -10  116.96   16.65
   3   1  10   87.32    8.46
  -5  -1 -10  223.26   17.38
  -5  -1 -10  182.17   21.86
   5  -1  10  217.83   16.31
   5  -1  10  226.45   14.79
  -5  -1 -10  160.10   21.45
   5   1  10  193.37   15.93
  -5   1 -10  193.26   17.11
  -5   1 -10  206.79   23.03
  -5   1 -10  173.73   18.30
   5   1  10  209.15   14.81
  -5   1 -10  230.50   23.52
  -7  -1 -10   58.77    8.16
  -7  -1 -10   69.90    8.23
   7  -1  10   79.81    7.63
  -7  -1 -10   68.30   13.19
  -7  -1 -10   88.12   14.96
   7  -1  10   67.58    5.29
  -7  -1 -10   61.62   10.62
   7   1  10   67.60    5.37
   7   1  10   74.80    7.27
  -7   1 -10   78.94    8.46
  -7   1 -10   51.42   13.10
  -7   1 -10   40.68   12.57
  -7   1 -10   55.99    9.58
  -9  -1 -10   -2.87    3.72
  -9  -1 -10    4.72    4.13
  -9  -1 -10    3.39    6.26
  -9  -1 -10   17.08    9.94
  -9  -1 -10  -10.04    9.38
   9  -1  10   13.69    3.56
   9   1  10    1.37    1.23
   9   1  10    6.70    3.25
  -9   1 -10    8.48    9.91
  -9   1 -10    2.93    6.19
  -9   1 -10    6.22    9.81
  -9   1 -10    6.90    4.31
 -11  -1 -10   39.46   13.05
 -11  -1 -10   36.99   14.05
 -11  -1 -10   60.06    8.87
 -11  -1 -10   47.70    8.11
  11  -1  10   57.31    7.12
 -11  -1 -10   43.94   10.20
  11  -1  10   57.72    4.89
  11   1  10   65.20    7.86
 -11   1 -10   63.38   15.15
 -11   1 -10   50.07    7.83
 -11   1 -10   67.45   16.28
  11   1  10   55.51    4.89
 -11   1 -10   58.81   10.08
 -13  -1 -10  141.05   15.74
  13  -1  10  189.18   12.23
 -13  -1 -10  129.56   19.02
 -13  -1 -10  157.87   24.19
 -13  -1 -10  126.97   22.68
 -13  -1 -10  131.94   16.80
  13  -1  10  166.75   14.76
 -13   1 -10  142.85   17.86
 -13   1 -10  170.62   18.16
  13   1  10  189.74   14.80
 -13   1 -10  178.67   25.24
 -13   1 -10  151.47   16.53
 -13   1 -10  160.01   24.39
  13   1  10  158.64   12.20
 -15  -1 -10   62.94   13.30
 -15  -1 -10   30.02   15.84
  15  -1  10   41.37    4.67
 -15  -1 -10   26.69    7.87
 -15  -1 -10   38.48   17.41
  15  -1  10   61.67    8.30
 -15   1 -10   39.58   17.38
 -15   1 -10   36.32    9.19
  15   1  10   48.53    4.76
  15   1  10   61.57    8.30
 -15   1 -10   48.47   17.25
  16  -2 -10   80.85    9.21
  16  -2 -10   69.27   10.10
  16  -2 -10   94.88   13.71
 -16  -2  10   64.69    9.21
 -16   2  10   71.91    6.39
  16   2 -10   59.09    9.10
  16   2 -10   77.44   12.42
  16   2 -10   71.79    8.26
  14  -2 -10  125.45   11.99
 -14  -2  10   95.16   11.86
  14  -2 -10  128.80   14.67
 -14  -2  10  125.21    9.32
  14  -2 -10  146.03   16.59
  14   2 -10  164.18   15.55
 -14   2  10  111.10    9.61
  14   2 -10  114.89   13.13
  14   2 -10  151.73   11.44
 -12  -2  10    6.91    1.46
  12  -2 -10    8.43    3.74
 -12  -2  10    8.98    3.29
  12  -2 -10    5.64    5.71
 -12  -2  10    3.68    3.67
  12  -2 -10   -1.81    6.31
 -12   2  10    8.39    1.85
  12   2 -10    7.22    3.16
  12   2 -10    6.12    5.08
  12   2 -10    1.40    5.31
  10  -2 -10   65.68    8.24
 -10  -2  10   63.83    6.82
 -10  -2  10   67.87    8.03
  10  -2 -10   57.81   10.08
  10  -2 -10   65.97   12.33
 -10  -2  10   74.76    5.72
  10   2 -10   76.84   10.20
  10   2 -10   69.74   11.11
  10   2 -10   80.60    7.47
 -10   2  10   75.96    6.05
   8  -2 -10  228.31   17.40
   8  -2 -10  206.44   19.43
   8  -2 -10  185.94   21.45
  -8  -2  10  218.70   17.18
  -8  -2  10  215.77   15.50
  -8   2  10  220.73   15.28
  -8   2  10  200.53   16.60
   8   2 -10  196.57   19.62
  -8   2  10  207.94   15.61
   6  -2 -10   57.16   10.11
   6  -2 -10   66.97   12.14
   6  -2 -10   98.75   13.37
  -6  -2  10   81.47    6.64
   6  -2 -10   83.71    8.09
  -6  -2  10   76.58    8.22
  -6   2  10   78.43    6.58
   6   2 -10   90.15   10.08
  -6   2  10   79.20    6.12
   6   2 -10   68.29   11.33
  -6   2  10   79.64    7.81
   6   2 -10   94.83    7.42
  -4  -2  10    1.79    1.46
   4  -2 -10    2.49    2.34
   4  -2 -10   10.03    7.00
  -4  -2  10    4.72    2.69
   4  -2 -10    5.27    5.58
   4  -2 -10    5.41    4.18
   4  -2 -10    6.34    6.75
  -4   2  10    1.35    2.44
  -4   2  10    5.63    0.96
   4   2 -10    3.07    5.31
   4   2 -10    3.42    2.01
   4   2 -10   10.55    4.04
   4   2 -10    6.39    6.56
  -4   2  10    4.26    1.53
   2  -2 -10   28.85    8.36
   2  -2 -10   42.49    9.64
   2  -2 -10   54.31   10.26
  -2  -2  10   33.15    2.62
   2  -2 -10   17.85    5.02
  -2  -2  10   29.79    4.61
  -2   2  10   29.51    4.36
  -2   2  10   44.44    3.85
  -2   2  10   35.39    2.91
   2   2 -10   58.00   10.29
   2   2 -10   36.52    6.21
   2   2 -10   28.91    4.09
   0  -2  10  121.59    7.98
   0  -2 -10   83.93   13.76
   0  -2 -10  112.75   11.23
   0  -2 -10  103.90   13.89
   0  -2  10  108.75    9.71
   0   2 -10   90.68   12.01
   0   2  10  112.01    8.18
   0   2  10  119.48    9.68
   0   2 -10   87.66   13.72
   0   2 -10  134.92   16.83
   0   2 -10   94.98   10.62
   0   2  10  117.08    8.98
  -2  -2 -10  152.38   14.94
  -2  -2 -10  184.63   18.49
   2  -2  10  186.72   12.41
   2  -2  10  189.69   14.14
  -2  -2 -10  169.51   19.70
  -2  -2 -10  135.04   17.48
   2   2  10  179.55   12.59
  -2   2 -10  187.21   21.21
   2   2  10  184.10   13.80
  -2   2 -10  154.37   16.14
  -2   2 -10  159.06   14.99
  -2   2 -10  175.30   19.54
  -4  -2 -10   20.13    9.39
   4  -2  10   40.55    5.30
  -4  -2 -10   32.66    8.37
   4  -2  10   36.45    3.06
  -4  -2 -10   30.19    5.44
  -4   2 -10   37.70    7.51
   4   2  10   41.95    5.15
  -4   2 -10   40.19   12.72
   4   2  10   40.51    3.24
  -4   2 -10   39.58   11.65
  -4   2 -10   35.08    6.29
  -6  -2 -10   42.83   11.24
  -6  -2 -10   44.97    6.86
  -6  -2 -10   36.41   10.51
   6  -2  10   52.91    6.30
   6  -2  10   42.58    3.61
  -6  -2 -10   39.17    6.24
  -6  -2 -10   34.12    8.75
  -6   2 -10   42.99   11.80
  -6   2 -10   38.16    7.48
   6   2  10   46.17    3.74
  -6   2 -10   49.54    6.71
   6   2  10   44.56    5.62
  -6   2 -10   27.36   10.80
   6   2  10   46.44    3.79
  -8  -2 -10   99.13   14.55
  -8  -2 -10  101.98   17.31
   8  -2  10  131.55   10.90
  -8  -2 -10  124.86   12.02
  -8  -2 -10   99.11   17.45
   8  -2  10  110.33    8.65
   8   2  10  117.63    8.88
  -8   2 -10   92.59   13.55
   8   2  10  119.75    8.66
  -8   2 -10  122.03   11.57
   8   2  10  126.45   10.39
  -8   2 -10  136.31   19.61
  -8   2 -10  110.95   19.64
 -10  -2 -10  102.84   11.87
 -10  -2 -10   65.82   15.01
 -10  -2 -10   77.12   16.23
  10  -2  10   99.04    7.50
  10  -2  10  105.93    9.93
 -10  -2 -10   93.20   13.71
 -10  -2 -10   90.30   10.83
  10   2  10   92.61    7.62
  10   2  10  104.08    7.37
 -10   2 -10   85.42   12.21
 -10   2 -10   69.24   15.60
  10   2  10  122.41    9.66
 -10   2 -10   92.40   10.64
 -10   2 -10   71.05   16.15
 -12  -2 -10    2.08    4.38
 -12  -2 -10    0.45    7.54
  12  -2  10   13.78    4.53
 -12  -2 -10  -10.41   10.16
 -12  -2 -10    1.18    5.49
 -12  -2 -10    1.16   11.72
 -12   2 -10    3.28   12.16
 -12   2 -10    2.76    6.68
  12   2  10    1.91    4.38
 -12   2 -10    4.37   11.80
  12   2  10    3.95    1.55
 -14  -2 -10   15.30    6.39
 -14  -2 -10    7.96   12.88
 -14  -2 -10   18.46   14.22
  14  -2  10    8.17    5.36
 -14  -2 -10    4.08    7.29
 -14  -2 -10   11.21    9.79
  14   2  10   14.59    2.39
 -14   2 -10   24.84   14.81
 -14   2 -10   16.92   14.93
  14   2  10   10.37    5.73
  17  -3 -10    5.54    7.59
  17  -3 -10    5.94    6.43
  17  -3 -10    4.07    4.86
  17   3 -10    8.39    5.40
  17   3 -10    2.77    3.60
 -17   3  10    3.25    2.33
  15  -3 -10   31.74    8.03
  15  -3 -10   30.00    6.07
 -15  -3  10   28.61    6.62
  15  -3 -10   40.62   10.43
  15   3 -10   30.86    6.50
 -15   3  10   24.05    3.38
  15   3 -10   40.58    5.27
  15   3 -10   49.36    9.24
  13  -3 -10   18.84    4.59
  13  -3 -10   14.34    8.64
 -13  -3  10   17.72    2.09
 -13  -3  10   13.16    4.64
  13  -3 -10   18.10    7.40
  13   3 -10   17.34    6.99
  13   3 -10   15.61    3.60
  13   3 -10   10.44    4.83
 -13   3  10   14.92    2.41
  11  -3 -10   33.82    6.17
 -11  -3  10   56.09    6.11
  11  -3 -10   50.72   11.77
 -11  -3  10   45.54    3.93
 -11  -3  10   43.36    6.28
  11  -3 -10   49.74    9.37
  11   3 -10   49.41    7.90
 -11   3  10   45.35    4.36
  11   3 -10   41.81    5.71
  11   3 -10   47.54    8.74
   9  -3 -10   60.69    9.57
  -9  -3  10   58.46    7.78
   9  -3 -10   58.48   12.10
  -9  -3  10   62.07    6.15
   9  -3 -10   74.00    8.21
  -9  -3  10   74.86    5.32
   9   3 -10   47.76    8.23
  -9   3  10   63.58    5.20
  -9   3  10   57.79    5.58
   9   3 -10   73.97   10.41
  -7  -3  10   35.67    3.51
  -7  -3  10   33.27    5.34
  -7  -3  10   32.32    4.01
   7  -3 -10   22.96    8.26
   7  -3 -10   34.24    8.28
   7  -3 -10   27.08    5.07
   7  -3 -10   24.48    8.14
   7   3 -10   31.18    6.40
   7   3 -10   31.98    7.52
  -7   3  10   30.04    4.58
   7   3 -10   31.77    4.27
  -7   3  10   36.85    5.15
  -7   3  10   37.28    3.05
   5  -3 -10  126.61   17.64
   5  -3 -10  173.42   18.36
  -5  -3  10  170.50   12.85
   5  -3 -10  195.88   18.45
  -5  -3  10  169.54   14.15
   5  -3 -10  196.64   14.35
   5   3 -10  181.73   13.22
  -5   3  10  160.29   13.60
   5   3 -10  164.70   17.00
  -5   3  10  167.83   12.41
  -5   3  10  167.82   12.87
   3  -3 -10   69.24   11.26
  -3  -3  10   41.23    5.51
   3  -3 -10   48.44   10.14
   3  -3 -10   57.41   10.50
   3  -3 -10   39.01    7.04
   3   3 -10   56.44    4.82
  -3   3  10   42.56    3.75
   3   3 -10   27.58    8.44
   3   3 -10   38.69    8.29
   3   3 -10   54.64    7.22
  -3   3  10   46.22    4.48
  -3   3  10   46.06    5.45
   1  -3 -10   11.86    7.01
  -1  -3  10   10.06    3.02
   1  -3 -10   19.86    7.23
   1  -3 -10   18.26    7.08
   1  -3 -10   10.94    4.33
   1   3 -10   17.96    7.27
   1   3 -10    7.75    4.45
  -1   3  10   14.33    3.02
   1   3 -10   10.13    3.10
  -1   3  10   12.84    2.24
  -1   3  10   13.75    1.66
   1   3 -10   15.14    4.17
  -1  -3 -10   58.27   10.63
  -1  -3 -10   38.70    6.07
  -1  -3 -10   33.02    8.04
   1  -3  10   42.72    3.10
   1  -3  10   33.77    4.88
  -1  -3 -10   28.73   10.49
   1   3  10   41.62    4.35
  -1   3 -10   31.46    5.65
   1   3  10   45.22    5.05
   1   3  10   45.05    3.45
  -1   3 -10   32.06    4.23
  -1   3 -10   41.96   10.07
  -1   3 -10   50.62   12.75
  -1   3 -10   38.31    7.30
  -3  -3 -10   44.76    9.78
  -3  -3 -10   64.21    7.89
   3  -3  10   59.87    6.94
  -3  -3 -10   65.98   12.60
  -3  -3 -10   59.75   13.05
   3  -3  10   58.92    4.67
  -3   3 -10   77.69    8.31
   3   3  10   73.19    6.53
   3   3  10   63.09    4.91
  -3   3 -10   66.54   13.50
  -3   3 -10   54.61    8.81
  -5  -3 -10   10.94    6.71
   5  -3  10   10.31    3.45
  -5  -3 -10    4.34    3.28
  -5  -3 -10    8.05    8.27
  -5  -3 -10   14.59    8.13
   5  -3  10   10.81    1.33
  -5  -3 -10    7.53    6.58
  -5   3 -10   11.88    3.78
  -5   3 -10    9.18    8.60
   5   3  10    8.00    2.96
   5   3  10   11.96    1.61
  -5   3 -10    6.55    9.23
  -5   3 -10    7.83    4.55
   5   3  10   12.11    1.55
   7  -3  10   57.76    4.27
  -7  -3 -10   40.65    9.16
  -7  -3 -10   47.77   11.46
   7  -3  10   58.89    6.92
  -7  -3 -10   53.81    7.94
  -7  -3 -10   49.78   11.95
  -7  -3 -10   52.00    6.81
  -7   3 -10   49.81   13.35
   7   3  10   49.71    4.42
   7   3  10   51.15    4.58
   7   3  10   47.57    6.11
  -7   3 -10   77.42   15.08
  -7   3 -10   59.44    9.21
  -7   3 -10   58.60    7.68
   9  -3  10    6.37    1.28
   9  -3  10    7.88    3.41
  -9  -3 -10    5.21    4.13
  -9  -3 -10    0.84    6.07
  -9  -3 -10    0.31    9.09
  -9  -3 -10   -4.84    9.38
  -9  -3 -10    6.29    4.67
   9   3  10    4.16    1.33
  -9   3 -10    2.41    5.11
   9   3  10    0.75    3.27
   9   3  10    7.68    1.74
  -9   3 -10   -4.63   10.59
  -9   3 -10   -1.35   10.00
  -9   3 -10    6.38    4.47
 -11  -3 -10   91.85   17.30
  11  -3  10  104.64   10.67
 -11  -3 -10   95.27   11.58
 -11  -3 -10  111.99   12.74
 -11  -3 -10   85.49   14.70
 -11  -3 -10   85.01   17.71
  11   3  10  114.29   10.40
  11   3  10  115.16    7.96
 -11   3 -10   88.51   18.05
  11   3  10  108.76    8.26
 -11   3 -10   87.77   18.52
 -11   3 -10   82.10   12.49
 -13  -3 -10   47.48   15.64
  13  -3  10   75.49   10.10
 -13  -3 -10   77.86   13.56
 -13  -3 -10   71.73   18.07
 -13  -3 -10   65.39   10.17
 -13  -3 -10   73.09   10.17
  13   3  10   85.70    6.68
 -13   3 -10   93.64   19.97
 -13   3 -10   64.70   17.51
  13   3  10  114.11   13.94
 -15  -3 -10   -9.56    7.65
 -15  -3 -10   12.30   11.06
 -15  -3 -10    8.50    6.54
  15  -3  10   -2.92    5.78
 -15  -3 -10   30.20   15.51
 -15  -3 -10   -7.33   14.68
 -15   3 -10    6.15   16.04
  15   3  10    3.47    1.98
 -15   3 -10  -14.00   14.90
  16  -4 -10   35.37    8.26
  16  -4 -10   31.10    5.79
 -16  -4  10   37.99    7.92
  16  -4 -10   31.47    9.70
 -16   4  10   31.60    3.81
  16   4 -10   30.62    6.92
  16   4 -10   34.07    5.11
  14  -4 -10    3.30    4.01
 -14  -4  10    8.66    4.98
  14  -4 -10   15.82    8.44
  14  -4 -10   -9.30    6.06
  14   4 -10   12.01    4.94
  14   4 -10    1.21    5.42
  14   4 -10    2.44    3.01
 -14   4  10    2.82    1.79
  12  -4 -10    3.61    6.30
 -12  -4  10    2.28    3.57
  12  -4 -10   -0.46    3.41
 -12  -4  10    2.42    3.82
  12  -4 -10   -3.85    7.63
  12   4 -10   -2.16    2.43
  12   4 -10    3.04    4.19
 -12   4  10    1.89    1.47
  12   4 -10    2.28    4.96
 -10  -4  10   10.76    4.10
  10  -4 -10   12.01    8.13
 -10  -4  10    9.41    3.51
  10  -4 -10   10.93    4.19
  10  -4 -10   -0.42    5.96
 -10  -4  10    9.28    1.51
  10   4 -10    4.04    4.81
  10   4 -10    3.47    4.14
  10   4 -10    7.88    2.93
 -10   4  10    6.14    1.77
  -8  -4  10   17.94    3.20
  -8  -4  10   17.00    4.11
   8  -4 -10   23.90    9.42
   8  -4 -10    7.36    5.87
   8  -4 -10   18.65    4.53
  -8  -4  10   22.05    2.66
   8   4 -10   15.48    5.09
   8   4 -10   19.49    6.24
  -8   4  10   15.28    2.41
   8   4 -10   21.80    3.10
   6  -4 -10    6.62    6.74
   6  -4 -10    9.23    6.31
   6  -4 -10    3.47    7.20
  -6  -4  10    7.39    3.38
   6  -4 -10    5.25    3.43
   6  -4 -10   -2.21    7.29
  -6  -4  10    9.05    1.87
   6   4 -10    6.79    4.72
  -6   4  10    4.93    2.75
   6   4 -10    6.03    3.97
  -6   4  10    6.61    1.88
   6   4 -10    8.62    2.07
  -6   4  10    7.11    1.32
   4  -4 -10    1.32    5.97
   4  -4 -10    0.22    6.28
  -4  -4  10    0.41    2.63
   4  -4 -10   -1.30    4.38
   4  -4 -10  -12.04    6.38
  -4   4  10    1.22    2.07
  -4   4  10    0.36    0.80
   4   4 -10   -1.61    4.79
   4   4 -10   -1.36    2.06
   2  -4 -10   24.12    7.56
   2  -4 -10    6.87    5.75
   2  -4 -10    3.92    6.48
  -2  -4  10    4.77    2.72
   2   4 -10    4.89    3.31
   2   4 -10   -3.35    5.77
  -2   4  10   10.05    2.73
  -2   4  10   11.69    2.51
   2   4 -10    5.75    4.96
  -2   4  10   10.99    1.47
   2   4 -10   12.06    2.13
   0  -4 -10   29.80    6.76
   0  -4 -10   62.04   10.65
   0  -4  10   38.15    5.14
   0  -4 -10   34.40    9.29
   0  -4 -10   47.73   12.15
   0   4 -10   39.73    6.10
   0   4 -10   36.60    7.01
   0   4  10   37.31    4.80
   0   4  10   42.73    4.57
   0   4  10   41.00    3.40
   0   4 -10   32.03   11.29
   2  -4  10   88.47    6.08
  -2  -4 -10   51.63   12.27
   2  -4  10   85.81    8.15
  -2  -4 -10   96.44   13.09
   2   4  10   81.71    7.72
  -2   4 -10   87.02   10.14
   2   4  10   70.31    6.49
  -2   4 -10   89.74   14.93
  -2   4 -10   68.13   13.96
   2   4  10   80.22    6.43
  -2   4 -10   93.45    9.20
  -2   4 -10   98.55    7.02
  -4  -4 -10    0.22    2.82
   4  -4  10    0.85    0.74
  -4  -4 -10    1.36    5.20
   4  -4  10    3.59    2.99
  -4  -4 -10   -6.39    6.83
  -4  -4 -10   -1.59    7.19
  -4  -4 -10   -0.64    3.43
  -4   4 -10    3.97    9.15
  -4   4 -10    9.56    9.45
  -4   4 -10    1.33    3.32
   4   4  10    1.68    0.88
   4   4  10    0.42    1.08
   4   4  10    0.76    2.27
  -4   4 -10   -0.99    3.73
   4   4  10    0.86    2.30
  -6  -4 -10   12.84    8.76
   6  -4  10   13.52    1.55
   6  -4  10   12.83    3.80
  -6  -4 -10   17.45    6.78
  -6  -4 -10   20.23    9.28
  -6  -4 -10   16.58    5.27
  -6  -4 -10   15.85    3.71
   6   4  10   14.57    3.27
   6   4  10   11.67    1.97
  -6   4 -10    7.37    9.92
  -6   4 -10   10.30   10.17
  -6   4 -10   14.21    4.95
  -6   4 -10    8.31    3.83
   6   4  10   11.23    1.69
  -8  -4 -10   46.69    6.51
  -8  -4 -10   28.14    9.10
  -8  -4 -10   12.65    9.85
  -8  -4 -10   30.38   10.83
  -8  -4 -10   37.49    6.42
   8  -4  10   28.97    5.21
   8  -4  10   40.50    3.16
   8   4  10   24.93    3.48
  -8   4 -10   32.31    5.49
   8   4  10   43.94    5.06
  -8   4 -10   25.58   11.66
  -8   4 -10   37.27   12.40
  -8   4 -10   42.57    7.12
   8   4  10   37.49    3.36
 -10  -4 -10   10.68    9.34
  10  -4  10    6.58    4.02
 -10  -4 -10   -0.03    4.78
 -10  -4 -10    6.40    6.76
 -10  -4 -10    5.64    9.80
 -10  -4 -10    6.18    5.20
  10   4  10    0.23    3.41
  10   4  10    1.33    1.52
 -10   4 -10   14.90   12.14
  10   4  10    4.03    1.36
 -10   4 -10    3.05   11.64
 -10   4 -10    3.97    5.08
 -12  -4 -10    0.83    5.58
  12  -4  10   -0.48    4.08
 -12  -4 -10   -2.45    5.19
 -12  -4 -10   14.99    8.45
 -12  -4 -10   -3.93   11.28
 -12  -4 -10   -1.97   11.19
  12   4  10    2.21    1.64
 -12   4 -10    1.88   12.46
  12   4  10    4.65    1.82
 -12   4 -10    3.24   12.77
  14  -4  10   -8.23    5.00
 -14  -4 -10    2.20    6.83
 -14  -4 -10    7.82    9.76
 -14  -4 -10   13.12   14.42
 -14  -4 -10    8.51   14.22
 -14  -4 -10   -5.32    5.97
  14   4  10   -0.44    1.75
 -14   4 -10  -10.66   13.32
 -14   4 -10    4.48   14.72
  15  -5 -10   26.44   10.12
 -15  -5  10   20.96    6.67
  15  -5 -10   18.03    5.24
  15  -5 -10   14.42    8.11
  15   5 -10   12.88    3.76
 -15   5  10   19.23    2.93
  15   5 -10   17.76    5.38
  13  -5 -10    2.54    3.89
 -13  -5  10   -8.31    3.87
 -13  -5  10   -3.88    3.99
  13  -5 -10    0.32    6.85
  13  -5 -10    3.39    8.51
  13   5 -10    1.31    2.76
 -13   5  10    1.11    1.68
  13   5 -10    0.21    4.15
  13   5 -10    3.46    5.20
  11  -5 -10    7.36    7.19
  11  -5 -10   -0.88    8.27
 -11  -5  10    4.41    3.69
 -11  -5  10    3.54    3.39
  11  -5 -10    8.19    4.12
  11   5 -10   -0.10    2.40
 -11   5  10    0.00    1.55
  11   5 -10    1.73    3.82
  11   5 -10    3.93    4.67
  -9  -5  10    1.03    3.41
  -9  -5  10    0.95    1.27
   9  -5 -10    4.02    3.66
   9  -5 -10   -5.86    7.13
   9  -5 -10   -3.77    5.76
  -9  -5  10    4.19    2.68
   9   5 -10   -0.13    3.51
   9   5 -10    0.10    4.22
   9   5 -10   -1.51    1.88
  -9   5  10   -0.66    1.19
  -9   5  10   -0.90    1.40
  -7  -5  10   11.36    1.95
   7  -5 -10   10.33    7.50
  -7  -5  10   12.08    3.90
   7  -5 -10    9.61    6.49
   7  -5 -10   17.48    7.71
  -7  -5  10    9.58    2.89
   7  -5 -10   10.67    8.15
   7  -5 -10    7.32    3.78
   7   5 -10    9.27    4.94
   7   5 -10   10.72    4.47
  -7   5  10   10.44    2.05
   7   5 -10    9.35    2.38
  -7   5  10    6.86    1.62
  -5  -5  10    6.69    3.34
   5  -5 -10   10.80    6.97
   5  -5 -10   12.25    7.92
   5  -5 -10    2.17    5.11
   5  -5 -10    7.28    7.07
  -5  -5  10    4.38    1.68
   5   5 -10    1.73    3.92
  -5   5  10    6.33    1.85
   5   5 -10   12.32    5.36
  -5   5  10    4.26    1.14
   5   5 -10    5.34    1.68
   3  -5 -10    8.87    6.61
  -3  -5  10    7.46    3.31
   3  -5 -10    7.60    6.76
   3  -5 -10   10.17    6.61
   3  -5 -10    8.63    5.03
  -3   5  10   17.32    2.58
   3   5 -10    9.06    4.27
   3   5 -10   15.41    6.14
  -3   5  10    6.85    2.46
  -1  -5  10    0.55    2.69
   1  -5 -10    5.44    4.23
   1  -5 -10    3.26    6.39
   1  -5 -10    3.82    6.46
   1  -5 -10   -2.19    5.77
   1   5 -10   -1.66    7.76
   1   5 -10    2.59    1.50
  -1   5  10    2.67    2.09
   1   5 -10    1.28    7.67
  -1   5  10    8.12    2.03
  -1   5  10    3.16    1.02
   1   5 -10    1.56    2.87
   1  -5  10   -0.11    2.46
  -1  -5 -10   -6.63    5.71
  -1  -5 -10    8.99    5.87
  -1  -5 -10    6.78    4.63
  -1  -5 -10   -3.87    6.49
   1   5  10    3.33    1.29
  -1   5 -10    3.29    3.63
  -1   5 -10   13.74    8.79
   1   5  10    4.53    2.35
  -1   5 -10    7.73    3.40
   1   5  10    1.82    0.89
   1   5  10    1.77    1.91
  -1   5 -10    2.24    1.43
   3  -5  10   10.85    3.46
  -3  -5 -10   10.30    4.52
   3  -5  10   10.21    1.19
  -3  -5 -10   13.40    6.37
  -3  -5 -10   16.83    9.21
  -3  -5 -10    8.95    8.58
  -3   5 -10   11.07   10.10
  -3   5 -10   11.43    9.03
   3   5  10    9.82    1.68
   3   5  10    3.10    2.36
   3   5  10   13.27    2.65
  -3   5 -10    8.72    4.06
  -3   5 -10   10.74    3.53
   5  -5  10    1.79    0.75
  -5  -5 -10   -6.80    6.90
  -5  -5 -10    0.65    2.85
   5  -5  10    1.51    3.19
  -5  -5 -10    1.32    3.98
  -5  -5 -10    8.18    7.82
  -5  -5 -10    7.01    6.49
   5   5  10    0.11    1.07
  -5   5 -10   -1.03    3.53
  -5   5 -10   -0.04    3.00
  -5   5 -10  -12.81    7.68
   5   5  10    0.33    2.19
   5   5  10    1.51    1.17
   5   5  10   -2.15    2.02
  -5   5 -10    1.76    9.63
  -7  -5 -10    2.26    4.13
  -7  -5 -10   -3.85    2.97
  -7  -5 -10   -3.25    5.80
  -7  -5 -10    3.22    9.04
   7  -5  10   -1.57    0.82
  -7  -5 -10   13.33   10.11
   7  -5  10   -1.67    3.45
   7   5  10   -0.04    2.27
   7   5  10   -0.52    1.28
   7   5  10    1.65    1.12
  -7   5 -10    0.34    4.00
  -7   5 -10    7.71    9.95
   7   5  10   -2.17    2.22
  -7   5 -10    3.24    3.46
  -7   5 -10    9.03   10.92
  -9  -5 -10    8.70    7.28
  -9  -5 -10   12.87    9.06
  -9  -5 -10   -6.08    8.51
  -9  -5 -10    5.52    4.45
  -9  -5 -10    2.63    4.44
   9  -5  10    1.59    3.79
  -9   5 -10   -0.37    4.05
  -9   5 -10    8.73   11.89
   9   5  10    0.73    1.34
   9   5  10   -0.58    1.29
   9   5  10    3.95    2.74
  -9   5 -10  -11.21   10.32
  11  -5  10   -4.63    4.02
 -11  -5 -10   11.52   11.37
 -11  -5 -10    5.11    7.94
 -11  -5 -10    4.51    5.21
 -11  -5 -10    0.71    4.86
 -11  -5 -10    7.47   10.32
 -11   5 -10   -8.76   10.97
 -11   5 -10   -1.91   12.60
  11   5  10   -1.53    1.75
  11   5  10    0.22    1.53
 -13  -5 -10    7.25   12.91
  13  -5  10    9.20    5.21
 -13  -5 -10    0.75    6.82
 -13  -5 -10   -7.33   12.25
 -13  -5 -10    2.78    8.18
 -13  -5 -10   -0.49    5.70
  13   5  10   -1.11    2.02
 -13   5 -10   21.24   14.53
  13   5  10    0.77    1.75
 -13   5 -10  -12.54   13.09
 -14  -6  10    2.70    4.81
  14  -6 -10    4.66    4.44
  14  -6 -10    2.85    7.37
  14  -6 -10   -8.19    8.76
  14   6 -10    4.95    3.03
  14   6 -10    4.34    4.24
  12  -6 -10    3.11    4.31
 -12  -6  10   -5.60    3.96
 -12  -6  10   -0.48    3.51
  12  -6 -10    0.13    9.40
  12  -6 -10    1.24    7.61
 -12   6  10    2.09    1.54
  12   6 -10    0.07    2.54
  12   6 -10   -2.54    3.72
  10  -6 -10   -0.66    3.59
  10  -6 -10    0.05    6.57
 -10  -6  10    1.47    3.77
 -10  -6  10   -0.19    3.02
  10  -6 -10   -1.59    8.34
  10   6 -10    0.39    4.68
 -10   6  10    0.96    1.43
  10   6 -10    2.18    3.40
  10   6 -10    1.50    2.46
 -10   6  10    1.81    1.52
  -8  -6  10   33.09    3.34
  -8  -6  10   41.90    6.37
   8  -6 -10   34.89    8.58
   8  -6 -10   29.64    8.28
  -8  -6  10   22.29    4.19
   8  -6 -10   32.48    5.58
   8  -6 -10   24.39    9.91
   8   6 -10   28.81    5.52
   8   6 -10   22.82    6.17
   8   6 -10   31.71    3.70
  -8   6  10   27.79    3.42
  -8   6  10   26.73    3.20
  -6  -6  10   13.40    4.28
   6  -6 -10   19.23    8.82
   6  -6 -10   16.40    8.34
  -6  -6  10   19.32    2.56
   6  -6 -10   29.00    8.65
   6  -6 -10   14.41    4.38
   6  -6 -10   13.19    6.24
  -6   6  10   18.62    2.27
  -6   6  10   16.76    2.63
   6   6 -10   18.34    4.97
   6   6 -10   15.87    2.48
   6   6 -10   19.35    5.59
  -4  -6  10    4.89    3.00
   4  -6 -10   -2.89    6.51
   4  -6 -10   15.52    8.22
   4  -6 -10   10.19    5.69
   4  -6 -10   -6.79    6.71
  -4   6  10    2.39    1.61
   4   6 -10    5.54    3.91
  -4   6  10    4.01    1.32
   4   6 -10    2.22    1.45
   4   6 -10   -4.46    3.75
  -2  -6  10   28.88    4.66
   2  -6 -10   12.14    5.18
   2  -6 -10    5.01    6.69
   2  -6 -10   31.77    8.96
   2  -6 -10   14.32    8.06
  -2   6  10   20.66    2.75
  -2   6  10   21.83    3.15
   2   6 -10   19.49    6.08
   2   6 -10   21.64    4.78
   2   6 -10   23.64    2.48
   0  -6 -10   15.96    4.97
   0  -6 -10   20.93    7.73
   0  -6 -10   10.61    7.18
   0  -6  10   16.46    3.79
   0  -6 -10   11.56    8.34
   0   6  10   19.67    3.14
   0   6 -10   15.08    1.86
   0   6 -10   18.62    3.79
   0   6  10   17.20    2.24
   0   6  10   16.90    2.84
   2  -6  10    4.50    2.97
  -2  -6 -10    8.55    7.87
  -2  -6 -10    0.21    5.78
  -2  -6 -10    3.57    3.91
  -2  -6 -10   -2.70    7.69
  -2   6 -10    6.27    9.98
   2   6  10    6.82    1.47
   2   6  10    2.79    2.08
  -2   6 -10    4.30    0.89
  -2   6 -10    3.62    3.40
   2   6  10    3.59    2.08
  -2   6 -10    3.56    3.10
   2   6  10    4.73    1.39
  -4  -6 -10    3.46    5.50
  -4  -6 -10    7.38    4.33
  -4  -6 -10    0.26    8.05
  -4  -6 -10    1.81    7.79
   4  -6  10   11.06    1.30
  -4  -6 -10   13.87    3.34
   4  -6  10   11.85    4.13
  -4   6 -10   14.15    4.13
   4   6  10   13.73    3.04
   4   6  10   10.07    1.71
   4   6  10   11.35    2.35
  -4   6 -10   24.88   10.01
   4   6  10    8.28    1.68
  -4   6 -10    8.40    3.30
  -6  -6 -10   -0.64    3.20
  -6  -6 -10    0.29    8.83
   6  -6  10    5.17    1.00
  -6  -6 -10    0.63    3.74
  -6  -6 -10    8.81    9.18
   6  -6  10    5.85    3.51
  -6  -6 -10    4.02    6.34
   6   6  10    3.30    2.39
  -6   6 -10    8.55    3.89
  -6   6 -10    3.16    9.54
  -6   6 -10    6.19   10.16
   6   6  10    5.16    2.11
  -6   6 -10    2.41    3.04
   6   6  10    4.96    1.56
  -8  -6 -10   10.94   10.01
  -8  -6 -10   10.69    7.25
  -8  -6 -10    6.28    4.61
   8  -6  10    6.95    4.02
  -8  -6 -10   -4.00    9.41
  -8  -6 -10    6.26    4.65
   8   6  10    6.07    1.72
  -8   6 -10   19.09   11.58
   8   6  10    5.04    1.92
  -8   6 -10   -4.58   10.07
   8   6  10    9.32    3.13
  -8   6 -10   10.74    3.72
 -10  -6 -10   38.69   10.37
 -10  -6 -10   39.09    7.63
 -10  -6 -10   11.77   11.11
  10  -6  10   32.70    6.23
 -10  -6 -10   45.65   12.99
 -10  -6 -10   30.32    6.85
 -10   6 -10   18.81   13.34
 -10   6 -10   56.62   14.96
  10   6  10   29.58    4.77
  10   6  10   42.25    3.93
  10   6  10   34.51    4.01
 -12  -6 -10   21.45   13.09
 -12  -6 -10   11.87    6.97
 -12  -6 -10    3.38    8.38
 -12  -6 -10   -4.88    5.63
 -12  -6 -10   14.22   12.59
  12  -6  10   -2.41    4.68
 -12   6 -10    6.24   13.11
  12   6  10    6.50    3.82
 -12   6 -10  -11.55   11.75
  12   6  10   -1.56    1.69
  12   6  10   -0.73    2.02
 -14  -6 -10   31.45   14.69
 -14  -6 -10   15.41    7.06
  14  -6  10    8.86    6.53
 -14  -6 -10   24.39    8.62
 -14  -6 -10    2.53    9.87
 -14  -6 -10   20.02   14.69
  14   6  10    5.24    2.32
  14   6  10   25.84    5.47
  14   6  10    9.33    2.85
 -14   6 -10   37.63   17.27
 -14   6 -10    3.19   15.45
  15  -7 -10   16.92   10.31
  15  -7 -10    6.94    5.57
  15  -7 -10   21.18    8.93
 -15  -7  10   15.63    6.40
  15   7 -10   12.26    3.33
 -15   7  10   20.55    3.11
  15   7 -10   21.91    4.00
  13  -7 -10   36.39    9.67
  13  -7 -10   26.75    5.99
 -13  -7  10   42.69    7.10
 -13  -7  10   33.26    6.50
  13  -7 -10   44.23   12.52
 -13   7  10   32.37    4.04
  13   7 -10   33.72    6.33
  13   7 -10   38.32    4.54
  13   7 -10   31.37    4.31
 -11  -7  10   14.71    4.47
  11  -7 -10   17.74    5.18
  11  -7 -10   19.15    8.45
 -11  -7  10   17.87    4.89
  11  -7 -10    9.42    9.88
 -11   7  10   18.94    2.80
  11   7 -10   18.23    4.75
 -11   7  10   15.98    2.59
  11   7 -10   19.30    3.28
  -9  -7  10   19.79    5.04
   9  -7 -10   19.95    4.76
   9  -7 -10   16.25    7.88
  -9  -7  10   17.84    3.95
   9  -7 -10    9.82    9.23
   9   7 -10   19.32    2.80
  -9   7  10   14.68    2.58
  -9   7  10   10.80    2.27
   9   7 -10   25.94    6.58
   9   7 -10   22.83    4.68
  -7  -7  10   13.18    4.50
  -7  -7  10    4.72    2.96
   7  -7 -10    2.50    7.34
   7  -7 -10    6.31    6.53
   7  -7 -10    5.92    3.59
  -7  -7  10    6.22    1.84
   7  -7 -10    6.35    8.35
   7  -7 -10    6.30    8.62
  -7   7  10    1.75    1.75
  -7   7  10    4.76    1.67
   7   7 -10    5.25    1.72
   7   7 -10    3.43    4.33
   7   7 -10    4.69    3.82
  -5  -7  10   18.82    4.38
   5  -7 -10   15.60    6.12
   5  -7 -10   14.61    8.08
   5  -7 -10   21.34    9.01
   5  -7 -10   10.62    7.75
   5   7 -10   19.30    2.20
   5   7 -10   20.51    6.27
   5   7 -10   20.27    4.87
  -5   7  10   15.80    2.34
  -5   7  10   20.89    2.91
   3  -7 -10    7.28    8.41
   3  -7 -10   17.31    8.12
   3  -7 -10   16.30    8.25
   3  -7 -10   22.19    6.13
  -3  -7  10   26.85    5.16
   3   7 -10   25.55    2.55
  -3   7  10   25.35    2.83
   3   7 -10   24.51    5.22
   3   7 -10   22.71    2.38
  -3   7  10   25.07    3.28
   3   7 -10   31.38    6.18
   1  -7 -10   89.99   15.27
  -1  -7  10  126.39   10.59
   1  -7 -10  106.61   15.50
   1  -7 -10   87.61   11.82
   1  -7 -10  125.35   15.26
   1   7 -10  104.72   10.31
  -1   7  10  120.38    9.26
  -1   7  10  114.04    8.71
   1   7 -10  101.10    8.29
  -1   7  10  122.77    9.08
   1   7 -10  140.44   12.33
  -1  -7 -10   -2.76    5.78
  -1  -7 -10   -1.46    7.53
  -1  -7 -10    1.99    4.23
  -1  -7 -10   -1.00    7.88
   1  -7  10   -1.23    3.08
  -1   7 -10   -3.04    3.39
   1   7  10    1.38    1.74
   1   7  10   -3.46    1.80
  -1   7 -10   -0.40    0.90
   1   7  10    1.31    1.18
  -1   7 -10   -0.21    2.54
  -3  -7 -10  118.33   10.12
   3  -7  10  131.13   11.34
  -3  -7 -10   89.39   14.35
  -3  -7 -10  113.31   16.93
  -3  -7 -10  120.90   12.23
  -3   7 -10  113.69   10.32
   3   7  10  112.60    9.02
   3   7  10  118.20    9.22
  -3   7 -10  129.18   18.25
  -3   7 -10  128.32   11.12
   3   7  10  116.03    9.74
  -5  -7 -10   69.02   13.98
   5  -7  10   73.40    4.68
  -5  -7 -10   51.95    8.34
   5  -7  10   71.72    8.37
  -5  -7 -10   61.81    7.11
  -5  -7 -10   57.52   13.46
  -5  -7 -10   49.65   10.66
   5   7  10   59.32    6.32
   5   7  10   56.68    5.37
   5   7  10   58.27    5.31
  -5   7 -10   60.57    7.18
  -5   7 -10   47.10    6.63
  -5   7 -10   49.40   13.21
   7  -7  10    6.12    1.14
  -7  -7 -10    3.51    9.40
  -7  -7 -10    5.78    4.62
   7  -7  10   -3.93    3.63
  -7  -7 -10   -6.53    8.81
  -7  -7 -10   11.61    7.26
  -7  -7 -10    6.54    3.91
   7   7  10    6.54    1.80
  -7   7 -10    7.94    3.28
  -7   7 -10    6.62   10.60
   7   7  10    9.25    3.08
   7   7  10    5.04    1.87
  -9  -7 -10    5.17   10.19
  -9  -7 -10    9.76    7.99
  -9  -7 -10   -4.12   10.37
  -9  -7 -10    2.47    4.99
  -9  -7 -10    5.06    5.17
   9  -7  10    0.24    4.41
   9   7  10    7.34    2.00
   9   7  10   11.16    3.32
  -9   7 -10   -0.07   11.23
   9   7  10    4.76    1.69
 -11  -7 -10   41.03    8.06
 -11  -7 -10    8.29   11.14
 -11  -7 -10   11.27   11.59
 -11  -7 -10   30.82    6.91
  11  -7  10   18.95    5.41
 -11  -7 -10   26.37   10.84
  11   7  10   21.72    4.35
 -11   7 -10   14.89   13.08
  11   7  10   22.05    3.04
  11   7  10   16.16    2.81
 -13  -7 -10   -0.68   10.23
 -13  -7 -10    5.70   14.18
  13  -7  10    5.60    5.36
 -13  -7 -10   10.51    6.70
 -13  -7 -10    4.84    7.84
 -13  -7 -10   14.94   13.40
  13   7  10    1.53    2.43
 -13   7 -10   38.15   15.61
  13   7  10    9.28    4.67
  13   7  10   10.99    2.50
  14  -8 -10    7.48   10.87
  14  -8 -10    8.99    5.14
 -14  -8  10   -0.64    5.52
  14  -8 -10    9.47    9.00
 -14  -8  10    6.95    5.41
 -14   8  10    3.53    2.10
  14   8 -10    8.91    3.14
  14   8 -10    5.02    2.60
 -12  -8  10    5.24    4.28
  12  -8 -10    0.99    4.58
  12  -8 -10   -9.89   10.03
  12  -8 -10    5.05    8.95
 -12   8  10   -0.37    1.70
  12   8 -10    5.42    3.87
  12   8 -10    1.98    2.41
  12   8 -10   -1.60    1.97
 -10  -8  10   10.26    3.80
  10  -8 -10   -1.59    9.70
  10  -8 -10    1.83    4.26
 -10  -8  10   11.33    4.64
  10  -8 -10    1.43    7.59
  10   8 -10    7.62    2.18
 -10   8  10    6.62    1.92
  10   8 -10   11.20    2.61
  10   8 -10    4.06    3.71
 -10   8  10   10.16    2.11
  -8  -8  10   70.64    9.12
   8  -8 -10   50.37    8.31
   8  -8 -10   62.21   10.94
  -8  -8  10   66.21    7.67
   8  -8 -10   61.69   13.71
   8   8 -10   78.20    8.64
  -8   8  10   64.39    6.00
   8   8 -10   73.84    5.88
   8   8 -10   81.01    6.18
  -8   8  10   72.01    6.18
   6  -8 -10  113.42   14.93
   6  -8 -10   98.25   10.10
  -6  -8  10   98.18    7.60
  -6  -8  10  100.36   10.19
   6  -8 -10   66.77   14.77
   6  -8 -10   70.62   11.54
   6  -8 -10  119.98   16.41
   6   8 -10  114.90   11.52
   6   8 -10   90.34    7.11
  -6   8  10   88.23    7.51
   6   8 -10   90.33    7.45
  -6   8  10   88.67    7.69
   6   8 -10   97.43    9.93
  -4  -8  10    6.35    3.33
   4  -8 -10   -3.38    7.00
   4  -8 -10    2.20    8.08
   4  -8 -10    3.78    8.41
   4  -8 -10    6.57    5.81
   4   8 -10    6.75    3.84
   4   8 -10    8.01    1.58
  -4   8  10    3.89    1.69
   4   8 -10    9.17    4.37
  -4   8  10    3.41    1.48
   2  -8 -10   62.77   13.16
   2  -8 -10   46.19    8.50
  -2  -8  10   50.96    7.18
   2  -8 -10   59.53   12.94
   2  -8 -10   49.23   11.88
   2   8 -10   71.84    7.97
  -2   8  10   62.70    5.77
   2   8 -10   70.85    8.76
   2   8 -10   65.87    4.98
  -2   8  10   61.67    5.39
   0  -8  10  118.36   11.58
   0  -8 -10  107.42   16.46
   0  -8 -10  116.60   15.91
   0  -8 -10  106.18   16.74
   0  -8 -10  109.65   13.14
   0   8  10  128.21    9.59
   0   8  10  126.22   10.04
   0   8 -10  130.00    9.10
   0   8 -10  126.59   10.88
   0   8  10  113.45    9.83
   0   8 -10  143.08   12.43
  -2  -8 -10   52.00   11.49
  -2  -8 -10   62.66   14.01
  -2  -8 -10   60.02    8.90
   2  -8  10   64.89    7.89
  -2  -8 -10   64.92   12.79
  -2   8 -10   76.71    7.71
   2   8  10   53.65    5.62
   2   8  10   65.39    5.39
  -2   8 -10   50.81    6.47
   2   8  10   61.58    5.96
  -4  -8 -10   -1.57    8.98
  -4  -8 -10   -1.10    2.95
  -4  -8 -10   -4.68    8.89
  -4  -8 -10    5.87    4.02
   4  -8  10    1.28    3.61
  -4  -8 -10    0.76    6.03
   4   8  10    0.92    2.26
   4   8  10   -0.66    1.50
  -4   8 -10    1.92    2.66
   4   8  10   -0.17    1.29
  -4   8 -10   -0.32    2.97
  -6  -8 -10   24.70    8.73
  -6  -8 -10   20.20    9.71
  -6  -8 -10   21.63    5.96
   6  -8  10   29.81    5.88
  -6  -8 -10   18.47    9.83
  -6  -8 -10   24.33    4.84
  -6   8 -10   31.15    4.27
   6   8  10   23.43    3.03
  -6   8 -10   12.11   10.44
   6   8  10   22.92    3.12
   6   8  10   21.29    3.69
   8  -8  10   47.66    7.84
  -8  -8 -10   52.72    7.93
  -8  -8 -10   50.91   13.32
  -8  -8 -10   63.40    9.09
  -8  -8 -10   64.01   12.65
   8   8  10   66.28    5.79
   8   8  10   73.51    6.86
  -8   8 -10   48.58   13.29
   8   8  10   64.44    5.63
 -10  -8 -10   63.95   15.52
 -10  -8 -10   76.21   10.48
 -10  -8 -10   75.00    9.38
  10  -8  10   69.11    8.77
 -10  -8 -10   74.14   16.08
 -10  -8 -10   58.24   12.80
  10   8  10   60.66    5.95
  10   8  10   65.78    7.44
  10   8  10   61.30    6.16
 -10   8 -10   78.26   17.22
 -12  -8 -10   16.46   13.48
 -12  -8 -10   -2.08    6.14
 -12  -8 -10    9.69   10.38
  12  -8  10   14.38    5.78
 -12  -8 -10    8.91    7.57
 -12  -8 -10   16.74   13.53
  12   8  10    0.51    4.19
 -12   8 -10   10.18   14.49
  12   8  10    2.52    2.38
  13  -9 -10   73.17    9.36
 -13  -9  10   57.57    8.76
  13  -9 -10   38.50   11.74
  13  -9 -10   58.09   14.34
 -13  -9  10   60.21    9.22
 -13   9  10   66.66    6.05
  13   9 -10   68.62    6.77
  13   9 -10   64.02    6.86
 -11  -9  10  137.77   12.12
  11  -9 -10  118.66   12.72
  11  -9 -10   95.38   18.54
  11   9 -10  119.28    9.92
  11   9 -10  118.85   12.42
 -11   9  10  111.81    9.56
 -11   9  10  117.93    9.60
  11   9 -10  129.69    9.80
   9  -9 -10   24.62    9.96
   9  -9 -10   34.68    6.35
  -9  -9  10   35.30    5.51
   9  -9 -10   22.97   12.01
  -9  -9  10   29.75    6.64
  -9   9  10   39.67    4.13
   9   9 -10   36.51    6.47
  -9   9  10   35.79    3.93
   9   9 -10   30.40    3.82
   9   9 -10   30.93    3.85
   7  -9 -10   -4.61    6.90
   7  -9 -10    9.95    4.58
  -7  -9  10   15.14    3.97
   7  -9 -10   17.91    8.97
   7  -9 -10    9.34    8.74
  -7  -9  10   11.90    5.00
   7   9 -10   10.86    2.19
   7   9 -10   14.26    2.13
   7   9 -10   17.81    4.40
  -7   9  10   14.25    2.44
  -7   9  10    8.25    2.06
   5  -9 -10   98.16   14.35
   5  -9 -10   88.53   13.50
  -5  -9  10   87.21    9.58
   5  -9 -10   87.02   12.20
   5  -9 -10   56.31   13.34
  -5   9  10   83.20    6.82
   5   9 -10   81.34    8.91
  -5   9  10   75.89    6.94
   5   9 -10   83.04    6.66
   3  -9 -10   66.93   13.94
   3  -9 -10   71.64   13.23
   3  -9 -10   89.23   14.25
  -3  -9  10   99.19    9.88
   3  -9 -10   82.14   11.87
   3   9 -10   94.93    9.26
  -3   9  10   92.60    7.18
  -3   9  10   91.01    7.40
   3   9 -10   80.28    6.76
  -1  -9  10   52.43    6.95
   1  -9 -10   45.53   12.55
   1  -9 -10   60.89   13.82
   1  -9 -10   40.35    8.21
   1  -9 -10   45.61   11.01
   1   9 -10   60.79    7.15
  -1   9  10   56.40    5.45
  -1   9  10   59.12    4.94
   1   9 -10   51.65    4.47
  -1   9  10   54.53    5.31
  -1  -9 -10   -1.23    8.56
  -1  -9 -10    7.95    6.32
  -1  -9 -10    0.34    4.30
  -1  -9 -10   -0.32    9.08
   1  -9  10    0.86    3.64
   1   9  10   -1.16    1.38
  -1   9 -10    5.45    2.79
   1   9  10   -0.58    1.75
   1   9  10   -1.56    1.85
  -3  -9 -10   49.49   10.97
   3  -9  10   62.39    8.10
  -3  -9 -10   67.54    8.87
  -3  -9 -10   55.60    6.29
  -3  -9 -10   52.38   13.07
  -3  -9 -10   49.64   12.56
  -3   9 -10   52.12    6.03
   3   9  10   51.90    5.27
   3   9  10   57.66    5.68
   3   9  10   49.09    4.93
  -5  -9 -10  154.97   14.94
  -5  -9 -10  149.85   20.66
  -5  -9 -10  156.57   18.68
  -5  -9 -10  150.87   13.06
  -5  -9 -10  126.34   19.61
   5  -9  10  153.78   14.47
   5   9  10  149.65   11.69
   5   9  10  160.08   12.24
  -5   9 -10  159.43   12.20
   5   9  10  147.45   11.78
  -7  -9 -10   55.16   14.64
  -7  -9 -10   64.54   14.98
   7  -9  10   68.09    8.54
  -7  -9 -10   65.64    9.66
  -7  -9 -10   61.16   12.88
  -7  -9 -10   71.74    9.07
   7   9  10   63.80    6.41
   7   9  10   56.38    5.50
   7   9  10   49.01    5.70
  -9  -9 -10   -1.11    5.47
  -9  -9 -10   11.61    9.89
  -9  -9 -10    8.12    6.60
  -9  -9 -10   -0.55   10.76
  -9  -9 -10   10.12   11.27
   9  -9  10   11.62    5.56
   9   9  10    6.58    1.93
   9   9  10    4.87    2.19
   9   9  10    8.41    3.44
 -11  -9 -10   35.27   15.13
 -11  -9 -10   48.83    9.55
 -11  -9 -10   56.87    9.12
  11  -9  10   49.63    7.92
 -11  -9 -10   53.86   13.28
 -11  -9 -10   15.52   12.39
  11   9  10   34.96    4.58
  11   9  10   43.86    4.88
  11   9  10   51.39    6.27
  12 -10 -10   13.90    5.32
 -12 -10  10   14.55    6.77
 -12 -10  10   22.16    5.92
  12 -10 -10   17.70   10.91
  12 -10 -10   28.17   13.39
  12  10 -10   17.13    3.58
 -12  10  10   21.83    3.11
  12  10 -10   16.56    3.14
  10 -10 -10   74.60    9.70
 -10 -10  10   60.75    8.57
  10 -10 -10   60.27   12.63
  10 -10 -10   47.42   13.97
 -10  10  10   66.35    5.93
 -10  10  10   53.29    5.77
  10  10 -10   60.25    6.01
  10  10 -10   85.95    8.14
   8 -10 -10  128.04   20.18
   8 -10 -10  159.49   17.46
  -8 -10  10  120.44   12.22
   8 -10 -10  140.44   13.69
  -8 -10  10  147.76   14.04
  -8  10  10  145.99   10.74
   8  10 -10  136.24   13.07
   8  10 -10  131.56   10.55
  -8  10  10  128.38   10.63
   6 -10 -10  172.01   20.57
  -6 -10  10  188.45   16.03
   6 -10 -10  130.24   20.95
   6 -10 -10  169.75   18.31
   6 -10 -10  171.30   15.70
   6  10 -10  194.51   13.27
  -6  10  10  178.74   13.37
   6  10 -10  137.75   14.94
  -6  10  10  200.47   13.58
   4 -10 -10   -4.26    9.52
  -4 -10  10   -4.56    3.95
   4 -10 -10   -6.88    8.10
   4 -10 -10    6.46   13.88
   4 -10 -10    2.47    5.77
  -4  10  10    1.73    1.82
  -4  10  10   -0.56    1.37
   4  10 -10   -0.49    1.69
   2 -10 -10   87.65   16.67
   2 -10 -10  122.96   18.33
  -2 -10  10  134.27   12.20
   2 -10 -10  103.19   13.84
   2 -10 -10  107.91   17.98
  -2  10  10  107.54    9.70
   2  10 -10  140.91    9.27
  -2  10  10  121.73    9.65
  -2  10  10  120.01   10.15
   2  10 -10  138.94   11.44
   0 -10 -10   73.91   14.51
   0 -10 -10   73.39   15.37
   0 -10 -10   88.30   16.32
   0 -10  10   83.84   10.00
   0 -10 -10   78.21   11.24
   0  10  10   86.45    7.93
   0  10  10   81.53    7.74
   0  10 -10   99.15    9.40
   0  10 -10  107.07    7.08
   0  10  10   92.04    7.52
  -2 -10 -10   52.39   13.06
  -2 -10 -10   44.63   12.91
  -2 -10 -10   51.56    8.37
   2 -10  10   47.60    7.62
  -2 -10 -10   46.03   11.19
   2  10  10   47.05    5.29
   2  10  10   48.93    4.79
   2  10  10   57.50    5.40
  -2  10 -10   50.89    6.25
  -4 -10 -10   26.46   11.46
  -4 -10 -10   31.97    7.22
   4 -10  10   24.02    5.96
  -4 -10 -10   34.58   10.13
  -4 -10 -10   23.62   10.79
   4  10  10   30.02    3.56
   4  10  10   26.32    3.86
   4  10  10   32.28    4.05
  -6 -10 -10    1.48    9.84
  -6 -10 -10   -2.85    8.34
  -6 -10 -10    1.57    5.00
  -6 -10 -10    2.78    4.18
  -6 -10 -10   15.89   10.49
   6  10  10    1.69    1.99
   6  10  10    7.77    1.93
   6  10  10    6.91    2.84
  -8 -10 -10  142.15   13.91
  -8 -10 -10   90.08   19.21
  -8 -10 -10  130.89   15.14
   8 -10  10  113.31   13.86
  -8 -10 -10  115.42   18.48
  -8 -10 -10  120.68   20.11
   8  10  10  133.02   10.59
   8  10  10  155.46   11.46
   8  10  10  136.93   10.71
 -10 -10 -10  112.87   16.00
 -10 -10 -10  131.38   21.95
 -10 -10 -10   89.62   12.75
 -10 -10 -10  137.89   21.93
  10 -10  10  128.82   14.04
 -10 -10 -10  145.74   21.41
  10  10  10  124.47   10.11
  10  10  10  121.45   10.28
  10  10  10  151.75   11.37
  11 -11 -10  114.57   20.30
  11 -11 -10  137.72   13.91
 -11 -11  10  128.62   13.14
 -11 -11  10  133.29   15.23
  11  11 -10  135.71   10.67
 -11  11  10  125.05   10.40
 -11  11  10  125.31   10.43
   9 -11 -10   -8.37   10.10
  -9 -11  10    4.21    4.22
   9 -11 -10    1.35    4.82
   9 -11 -10    0.25    9.10
  -9 -11  10    0.83    6.10
  -9  11  10    7.00    2.27
   9  11 -10    5.19    2.35
  -9  11  10    5.69    2.27
  -7 -11  10    2.18    4.00
   7 -11 -10    6.19    7.79
   7 -11 -10   -0.54    4.40
  -7 -11  10   -5.29    5.06
   7 -11 -10   -2.28   10.57
  -7  11  10   -0.88    1.69
  -7  11  10    0.58    1.84
   7  11 -10    0.86    1.93
   5 -11 -10   97.24   15.52
   5 -11 -10   64.31   11.06
   5 -11 -10   65.47   15.14
   5 -11 -10   93.75   16.23
  -5 -11  10   79.70   10.59
   5  11 -10   73.49    6.88
  -5  11  10   93.17    7.20
  -5  11  10   85.15    7.09
   3 -11 -10  110.88   19.35
   3 -11 -10  135.24   19.05
   3 -11 -10  113.73   18.87
  -3 -11  10  146.73   13.62
   3 -11 -10  105.85   14.83
  -3  11  10  152.72   10.96
  -3  11  10  142.91   10.76
   1 -11 -10   13.72    9.61
   1 -11 -10   11.65   11.30
  -1 -11  10   31.98    6.14
   1 -11 -10   24.58    7.50
   1 -11 -10   12.42   11.90
  -1  11  10   22.60    3.26
   1  11 -10   31.42    3.26
  -1  11  10   27.82    3.61
  -1  11  10   28.95    3.95
   1 -11  10    9.13    4.70
  -1 -11 -10   -5.89    4.88
  -1 -11 -10   -3.03    7.87
  -1 -11 -10   17.77   10.80
  -1 -11 -10   16.63   11.32
  -3 -11 -10   47.18   12.13
  -3 -11 -10   34.25   12.31
   3 -11  10   58.84    8.83
  -3 -11 -10   38.00    7.89
  -3 -11 -10   50.05   13.44
   3  11  10   45.86    5.50
   3  11  10   55.26    4.96
   3  11  10   53.04    5.47
  -5 -11 -10  164.91   23.20
  -5 -11 -10  177.19   22.35
  -5 -11 -10  172.66   18.13
  -5 -11 -10  166.26   23.88
   5 -11  10  207.21   18.05
   5  11  10  196.82   14.66
   5  11  10  196.50   14.80
   5  11  10  209.55   15.00
  -7 -11 -10   31.92   11.36
   7 -11  10   29.49    7.17
  -7 -11 -10   31.94   13.27
  -7 -11 -10    8.31   12.01
  -7 -11 -10   36.10    6.47
  -7 -11 -10   29.86    7.85
   7  11  10   32.90    4.07
   7  11  10   25.09    4.17
   7  11  10   26.10    3.58
  -9 -11 -10   -1.43   11.19
  -9 -11 -10   15.34   13.11
  -9 -11 -10    9.33   11.68
   9 -11  10   20.44    7.07
  -9 -11 -10    7.60    6.44
  -9 -11 -10   17.81    7.75
   9  11  10   15.07    3.91
   9  11  10   11.38    2.92
   9  11  10    8.14    2.54
   8 -12 -10   55.04   15.40
   8 -12 -10   58.93    9.10
  -8 -12  10   73.84    9.17
   8 -12 -10   61.54   12.12
  -8 -12  10   80.07   10.51
   8  12 -10   55.49    6.29
  -8  12  10   69.53    6.43
  -8  12  10   69.61    6.30
  -6 -12  10   42.13    9.63
  -6 -12  10   37.62    6.22
   6 -12 -10   39.02    6.78
   6 -12 -10   43.44    9.97
   6 -12 -10   40.28   14.09
  -6  12  10   39.50    4.53
   4 -12 -10   16.61   10.86
  -4 -12  10    3.02    8.45
   4 -12 -10   -3.11   13.60
   4 -12 -10   17.38   14.98
   4 -12 -10   16.71    7.50
   4  12 -10    7.62    2.20
  -4  12  10    5.85    2.37
  -4  12  10    9.26    2.30
  -2 -12  10   15.83    8.14
   2 -12 -10   23.57   13.76
   2 -12 -10   17.82   10.65
   2 -12 -10   54.00   13.89
   2 -12 -10   37.06    8.99
   2  12 -10   30.45    3.46
  -2  12  10   27.97    4.20
  -2  12  10   30.14    3.82
  -2  12  10   25.79    3.43
   0 -12 -10  189.08   23.25
   0 -12 -10  155.35   15.97
   0 -12 -10  113.44   19.45
   0 -12 -10  137.01   20.29
   0  12  10  136.74   11.76
   0  12  10  150.15   11.34
   0  12  10  138.52   11.40
  -2 -12 -10   36.50   13.21
  -2 -12 -10   56.64    9.42
   2 -12  10   49.58    8.53
  -2 -12 -10   61.81   14.35
  -2 -12 -10   58.10   14.92
   2  12  10   53.40    5.99
   2  12  10   50.03    5.35
   2  12  10   62.49    5.77
  -4 -12 -10    2.72   10.74
  -4 -12 -10   13.99    9.90
  -4 -12 -10   -3.45   11.59
  -4 -12 -10    6.04    5.80
   4 -12  10   -2.80    5.22
   4  12  10    3.72    2.48
   4  12  10    2.03    2.03
   4  12  10   -0.34    2.30
  -6 -12 -10   33.88    8.60
  -6 -12 -10   36.08   12.96
   6 -12  10   52.35    8.41
  -6 -12 -10   56.49   14.48
  -6 -12 -10   31.52   12.94
   6  12  10   41.44    4.71
   6  12  10   46.85    5.22
   6  12  10   32.03    4.82
   8 -12  10   54.05    9.42
  -8 -12 -10   42.58   15.10
  -8 -12 -10   31.51   14.76
  -8 -12 -10   42.49    9.17
  -8 -12 -10   39.36   13.52
   8  12  10   46.43    5.48
   8  12  10   42.51    5.27
   8  12  10   54.79    6.66
  -7 -13  10    9.76    4.90
   7 -13 -10    9.26    9.82
  -7 -13  10    5.12    7.14
   7 -13 -10   -2.70   11.84
   7 -13 -10   -2.36    4.89
  -7  13  10   10.17    2.56
  -7  13  10    7.98    2.41
   7  13 -10    4.08    2.66
   5 -13 -10    2.26   11.17
  -5 -13  10    4.33    6.49
   5 -13 -10    3.96    8.35
  -5  13  10   16.53    2.92
  -5  13  10   13.63    2.77
   5  13 -10    7.33    2.67
   3 -13 -10   56.13   16.67
  -3 -13  10   39.95    7.96
   3 -13 -10   40.88    9.59
   3 -13 -10   26.97   12.94
   3 -13 -10   33.09   16.42
   3  13 -10   41.53    4.78
  -3  13  10   37.51    4.74
  -3  13  10   36.74    4.60
   1 -13 -10   69.15   11.46
   1 -13 -10   64.75   17.34
   1 -13 -10   42.63   13.22
   1 -13 -10   51.62   15.50
  -1 -13  10   53.57    9.40
  -1  13  10   71.67    6.64
  -1  13  10   84.35    6.65
  -1  13  10   75.06    7.32
  -1 -13 -10   -1.22   12.90
  -1 -13 -10    1.32    9.83
  -1 -13 -10    8.41    6.17
   1 -13  10   -5.16    5.61
  -1 -13 -10    9.08   12.91
   1  13  10   -1.73    1.83
   1  13  10    2.34    2.47
   1  13  10   -0.66    2.23
  -3 -13 -10   76.81   17.24
  -3 -13 -10   80.86   18.47
  -3 -13 -10   93.88   13.36
  -3 -13 -10   85.67   17.41
   3 -13  10  103.24   13.18
   3  13  10  108.88    8.86
   3  13  10   88.89    8.48
   3  13  10   98.02    8.26
  -5 -13 -10   44.61   13.65
  -5 -13 -10   48.06   15.97
  -5 -13 -10   13.95   13.79
   5 -13  10   48.37    9.11
  -5 -13 -10   40.93    9.09
   5  13  10   62.26    6.21
   5  13  10   50.55    5.57
   5  13  10   58.89    6.00
   2 -14 -10    5.12   11.20
   2 -14 -10  -17.45   16.06
   2 -14 -10    8.23   15.74
  -2 -14  10    1.41    6.70
   2 -14 -10   -3.22    7.77
  -2  14  10    0.74    2.08
  -2  14  10    4.01    2.33
  -2  14  10    0.87    2.91
   0 -14 -10   27.27   14.93
   0 -14  10   20.77    7.24
   0 -14 -10   35.69    8.89
   0 -14 -10    5.27   14.94
   0 -14 -10   20.36   13.05
   0  14  10   24.29    3.63
   0  14  10   17.05    3.19
   0  14  10   21.70    4.01
 -16   0  11    0.60    2.08
  16   0 -11    0.35    7.40
  16   0 -11    6.61    4.02
  16   0 -11    1.85    6.29
  14   0 -11   -2.05    5.20
  14   0 -11   -0.24    3.57
 -14   0  11    0.10    1.79
  14   0 -11   -8.45    6.57
  12   0 -11   -0.76    7.07
 -12   0  11    1.68    3.32
  12   0 -11    0.59    3.56
  12   0 -11  -10.41    5.17
 -12   0  11   -0.61    1.63
 -10   0  11    1.75    1.68
  10   0 -11   -5.82    5.26
  10   0 -11   11.29    7.55
 -10   0  11    0.28    3.23
 -10   0  11   -0.53    2.79
  10   0 -11    0.30    3.42
   8   0 -11    2.24    3.23
  -8   0  11   -2.78    1.60
   8   0 -11   -4.19    5.76
  -8   0  11   -7.53    2.67
   8   0 -11    6.66    5.85
  -8   0  11   -1.23    1.96
   6   0 -11    1.12    2.74
   6   0 -11    3.57    4.70
  -6   0  11    0.94    1.69
   6   0 -11    7.35    7.27
  -6   0  11    1.50    3.03
  -6   0  11   -1.01    0.74
  -6   0  11   -1.29    1.43
   6   0 -11    4.54    6.58
  -4   0  11   -1.28    1.36
   4   0 -11    1.46    5.59
   4   0 -11   -0.17    2.15
  -4   0  11   -1.74    2.71
  -4   0  11    1.71    0.75
   4   0 -11   -3.88    4.11
   4   0 -11   -5.01    6.99
   4   0 -11    2.90    8.84
  -2   0  11    1.22    2.84
   2   0 -11    1.35    6.93
   2   0 -11    5.11    8.86
  -2   0  11   -1.05    0.72
  -2   0  11    0.37    1.46
   2   0 -11   -3.13    4.16
   2   0 -11    5.07    5.34
   2   0 -11   -1.31    1.96
   0   0  11   -1.51    2.47
   0   0  11   -1.11    0.67
   0   0 -11   -3.64    3.58
   0   0 -11  -11.36    7.85
   0   0 -11    2.51    8.50
   0   0 -11    8.64    6.61
   2   0  11   -1.15    0.69
  -2   0 -11   -3.06    3.43
  -2   0 -11    0.38    8.03
  -2   0 -11    4.69    9.75
  -2   0 -11   -2.85    5.39
   2   0  11   -0.59    2.60
  -4   0 -11   12.62   10.73
  -4   0 -11   -2.30    8.60
  -4   0 -11    0.75    3.56
   4   0  11    0.16    2.68
   4   0  11   -0.28    0.85
  -4   0 -11    6.28    6.57
   6   0  11    1.73    0.97
  -6   0 -11    6.56    4.33
   6   0  11    3.30    3.10
  -6   0 -11    0.08    9.25
  -6   0 -11   -3.54    9.93
  -6   0 -11    3.58    6.75
  -8   0 -11    8.34   10.91
  -8   0 -11   17.30   11.24
  -8   0 -11   -3.63    6.41
   8   0  11   -1.09    3.36
 -10   0 -11    0.95    6.13
 -10   0 -11   21.20   12.82
 -10   0 -11    7.26   11.42
 -10   0 -11   -1.25    7.32
  10   0  11    0.87    1.37
  10   0  11    4.29    4.13
  12   0  11    8.78    5.14
 -12   0 -11   20.22   13.36
  12   0  11   -0.46    1.60
 -12   0 -11    1.17    6.94
 -12   0 -11   -4.43    8.54
 -12   0 -11    4.75   12.52
 -14   0 -11   18.57   16.10
 -14   0 -11   10.29   11.21
  14   0  11    0.75    1.90
  14   0  11   -9.67    6.02
 -14   0 -11  -16.61   14.41
  15  -1 -11    0.39    7.20
  15  -1 -11    3.29    4.30
  15  -1 -11   -2.48    6.12
 -15  -1  11    1.07    1.94
  15   1 -11   -0.41    3.74
  15   1 -11   -2.45    6.59
 -15   1  11   -2.02    1.95
  15   1 -11    9.46    5.85
  13  -1 -11    6.19    4.12
  13  -1 -11    6.98    6.45
 -13  -1  11    7.30    4.16
  13  -1 -11    7.10    7.97
 -13  -1  11    3.94    1.82
  13   1 -11    3.42    3.93
 -13   1  11    2.31    1.92
  13   1 -11    4.36    5.48
  13   1 -11    9.35    6.78
  11  -1 -11   25.78    7.68
 -11  -1  11   35.02    5.60
  11  -1 -11   28.57    8.88
  11  -1 -11   33.72    5.68
 -11  -1  11   20.96    4.21
  11   1 -11   36.98    5.31
  11   1 -11   20.02    6.84
 -11   1  11   29.18    3.53
  11   1 -11   33.03    9.12
   9  -1 -11   11.78    7.85
  -9  -1  11    9.00    4.00
   9  -1 -11   12.25    4.03
  -9  -1  11   11.36    1.92
  -9  -1  11    7.21    2.58
   9  -1 -11    6.86    6.33
   9   1 -11   18.11    3.92
   9   1 -11   11.63    7.19
  -9   1  11   13.43    4.13
  -9   1  11   13.11    2.30
   9   1 -11    4.21    4.72
  -9   1  11    6.21    2.55
  -7  -1  11   15.12    2.43
   7  -1 -11   29.23    9.16
  -7  -1  11   20.51    4.47
  -7  -1  11   26.68    3.14
   7  -1 -11   22.67    4.58
   7  -1 -11   18.24    6.03
  -7   1  11   17.69    2.64
  -7   1  11   21.16    3.24
   7   1 -11   18.97    5.73
   7   1 -11   22.21    8.02
  -7   1  11   18.10    2.14
  -7   1  11   26.30    4.45
  -5  -1  11   38.22    4.04
   5  -1 -11   29.06   10.03
  -5  -1  11   39.98    5.73
   5  -1 -11   29.92    8.72
   5  -1 -11   31.50    7.10
  -5  -1  11   39.86    3.09
   5  -1 -11   32.64    4.97
   5   1 -11   41.94    7.78
  -5   1  11   38.34    3.27
   5   1 -11   42.35    5.12
   5   1 -11   20.91    8.26
   5   1 -11   43.24   10.65
  -5   1  11   41.03    3.75
  -5   1  11   49.50    6.19
  -3  -1  11   38.50    5.47
  -3  -1  11   41.54    4.20
   3  -1 -11   48.10   10.03
   3  -1 -11   30.39    8.46
   3  -1 -11   31.81   10.09
   3  -1 -11   36.83    7.43
  -3  -1  11   41.35    3.14
   3  -1 -11   40.96    5.13
   3   1 -11   34.26    8.91
  -3   1  11   35.97    4.52
   3   1 -11   44.76   10.62
   3   1 -11   39.29    4.98
   3   1 -11   33.56   10.49
  -3   1  11   35.96    5.11
   3   1 -11   32.30    6.92
  -3   1  11   40.20    3.29
   1  -1 -11    6.26    6.35
  -1  -1  11   -0.66    0.66
   1  -1 -11   -6.27    6.00
   1  -1 -11    1.11    6.48
  -1  -1  11   -1.60    2.28
   1  -1 -11   -4.14    7.97
   1   1 -11   -0.23    4.10
   1   1 -11    2.12    8.17
   1   1 -11    1.42    2.03
  -1   1  11    1.98    2.63
   1   1 -11   -4.22    8.00
   1   1 -11   -6.83    4.96
  -1   1  11    0.23    0.79
  -1  -1 -11   63.31   13.14
   1  -1  11   69.43    7.21
   1  -1  11   64.63    5.00
  -1  -1 -11   52.03   10.99
  -1   1 -11   62.00   13.26
  -1   1 -11   47.23    9.93
   1   1  11   71.59    7.07
  -1   1 -11   66.43   13.70
   1   1  11   69.55    5.12
  -1   1 -11   71.07    8.77
   3  -1  11   -0.42    0.71
  -3  -1 -11    5.09    8.94
  -3  -1 -11   -3.46    6.23
  -3  -1 -11   -0.94    8.53
   3  -1  11   -0.43    2.60
  -3   1 -11   -1.56    3.60
   3   1  11   -0.95    2.56
  -3   1 -11  -17.20    8.03
  -3   1 -11    6.33    6.09
   3   1  11   -1.07    0.73
  -3   1 -11   -4.43    9.63
   5  -1  11    3.64    0.98
   5  -1  11    4.13    2.92
  -5  -1 -11    6.08    9.58
  -5  -1 -11   -1.37    5.42
  -5  -1 -11   11.70   10.05
  -5   1 -11   -0.12    3.86
   5   1  11    2.82    1.01
  -5   1 -11   10.09   10.18
  -5   1 -11    2.26    5.70
   5   1  11    3.91    2.99
  -5   1 -11   11.52    9.90
   7  -1  11   10.11    1.52
  -7  -1 -11   -6.24    9.93
  -7  -1 -11    5.70    6.77
   7  -1  11   14.21    3.81
  -7  -1 -11    6.24    5.26
  -7  -1 -11    3.53    9.53
  -7   1 -11   16.06   11.21
  -7   1 -11   17.15   10.83
  -7   1 -11    9.71    4.38
   7   1  11    3.02    3.34
  -7   1 -11    7.11    6.61
   7   1  11   10.49    1.77
   9  -1  11    3.09    1.37
  -9  -1 -11    1.48    5.70
  -9  -1 -11    5.56    7.31
  -9  -1 -11   -4.63   10.14
   9  -1  11    2.39    3.91
  -9  -1 -11    7.21   11.11
  -9   1 -11   -7.76   10.97
   9   1  11    3.54    3.91
   9   1  11   -0.08    1.36
  -9   1 -11    0.97    4.81
  -9   1 -11  -17.21    9.88
  -9   1 -11   -2.68    7.17
 -11  -1 -11   14.95   12.48
 -11  -1 -11   17.59    6.20
  11  -1  11   14.61    4.94
 -11  -1 -11   20.77   13.51
 -11  -1 -11   17.87    9.25
 -11  -1 -11   17.87    6.85
  11  -1  11   13.13    2.15
  11   1  11   12.35    4.93
  11   1  11   12.29    2.15
 -11   1 -11   15.70    9.54
 -11   1 -11   36.56   14.43
 -11   1 -11   11.59   13.70
 -11   1 -11   13.95    7.38
 -13  -1 -11   10.54    9.86
 -13  -1 -11   17.97   14.33
  13  -1  11   -1.20    5.54
 -13  -1 -11    9.87    6.83
  13  -1  11   10.80    2.28
 -13  -1 -11   -6.11   13.28
 -13  -1 -11   10.52    8.07
 -13   1 -11    6.84   10.88
  13   1  11    9.84    5.88
 -13   1 -11   19.90   15.72
 -13   1 -11    9.77   14.88
  13   1  11   13.74    2.33
 -16  -2  11   -2.21    6.04
  16  -2 -11    9.49    8.47
  16  -2 -11   11.72    5.06
  16  -2 -11   -0.17    6.90
  16   2 -11   10.84    6.46
  16   2 -11    4.38    4.14
  16   2 -11   16.74    8.04
 -16   2  11    5.60    2.46
  14  -2 -11   -1.40    6.87
  14  -2 -11    6.39    8.27
 -14  -2  11    4.03    5.42
  14  -2 -11    7.85    4.68
 -14  -2  11    5.89    1.71
  14   2 -11    8.47    5.02
  14   2 -11   20.63    7.88
 -14   2  11    4.76    2.06
  14   2 -11    4.38    4.01
 -12  -2  11    4.09    3.97
 -12  -2  11   -7.16    3.64
  12  -2 -11   -0.29    3.94
  12  -2 -11    4.85    7.59
 -12  -2  11    2.13    1.36
  12  -2 -11    9.09    6.41
  12   2 -11    1.83    3.10
  12   2 -11    1.96    4.64
 -12   2  11    0.44    1.74
  12   2 -11   -0.93    5.79
  10  -2 -11   67.30    8.35
 -10  -2  11   63.23    6.84
  10  -2 -11   65.95   10.59
 -10  -2  11   70.50    5.55
  10  -2 -11   55.32   12.37
 -10  -2  11   62.33    8.41
  10   2 -11   66.50    9.69
 -10   2  11   65.28    5.89
  10   2 -11   80.46   12.41
  -8  -2  11   82.31    9.25
  -8  -2  11   83.99    7.19
   8  -2 -11   98.88    9.75
  -8  -2  11   89.92    7.75
   8  -2 -11   67.78   11.34
   8  -2 -11   84.18   14.61
  -8   2  11   92.73    6.84
  -8   2  11   84.57    9.02
   8   2 -11   98.12    8.80
  -8   2  11   91.20    7.46
   8   2 -11   84.81   12.69
   8   2 -11   94.91   11.24
  -6  -2  11   15.11    4.05
  -6  -2  11   13.76    2.37
   6  -2 -11    7.73    7.85
   6  -2 -11   14.93    4.40
   6  -2 -11    8.83    5.74
   6  -2 -11    9.53    7.10
  -6   2  11   13.38    2.65
  -6   2  11   15.31    1.77
   6   2 -11   14.84    6.99
  -6   2  11   15.27    3.83
   6   2 -11   16.29    5.75
   6   2 -11    8.97    2.95
   4  -2 -11    3.90    5.26
   4  -2 -11    3.31    5.67
   4  -2 -11    6.35    7.24
  -4  -2  11    6.35    3.12
   4  -2 -11   -2.06    8.54
  -4  -2  11    5.79    1.77
   4  -2 -11    7.76    3.45
  -4   2  11    8.16    3.04
  -4   2  11   10.85    2.31
  -4   2  11    5.87    1.19
   4   2 -11   12.31    6.39
   4   2 -11    7.54    2.48
   4   2 -11   13.02    5.14
   2  -2 -11  202.64   22.78
   2  -2 -11  211.94   21.80
   2  -2 -11  191.04   18.76
  -2  -2  11  212.67   14.85
   2  -2 -11  156.09   20.05
  -2  -2  11  221.44   16.91
  -2   2  11  217.04   15.13
   2   2 -11  236.16   16.23
  -2   2  11  204.30   16.54
   2   2 -11  238.24   23.92
   2   2 -11  194.42   20.49
   0  -2  11   64.98    4.62
   0  -2 -11   40.35   10.02
   0  -2  11   56.00    7.07
   0  -2 -11   52.52    8.52
   0  -2 -11   51.56   11.42
   0  -2 -11   44.12   11.77
   0   2  11   64.51    6.06
   0   2  11   66.42    4.85
   0   2 -11   53.83   10.63
   0   2  11   61.96    6.77
   0   2 -11   75.94   14.81
   0   2 -11   59.96    8.29
   0   2 -11   65.27   13.71
  -2  -2 -11   -0.79    5.53
  -2  -2 -11    9.34    9.99
  -2  -2 -11    4.49    8.39
  -2  -2 -11    0.41    4.27
   2  -2  11   -0.61    2.42
   2   2  11    1.74    2.48
  -2   2 -11    5.30    3.85
  -2   2 -11    7.15    5.58
  -2   2 -11   12.69    9.21
  -2   2 -11   16.13    9.66
  -4  -2 -11    6.71    4.97
   4  -2  11   11.48    3.52
   4  -2  11   17.60    1.81
  -4  -2 -11   11.94    6.62
  -4  -2 -11   13.99   10.36
  -4  -2 -11   15.41   10.13
  -4   2 -11    5.54    9.80
   4   2  11   15.27    1.83
   4   2  11   12.81    3.56
  -4   2 -11   15.31   10.65
  -4   2 -11   14.28    4.73
  -6  -2 -11   23.36   10.33
  -6  -2 -11    8.75    5.47
  -6  -2 -11   22.86   10.73
   6  -2  11   19.39    4.43
  -6  -2 -11   15.90    7.60
   6  -2  11   19.71    2.15
  -6   2 -11   14.65   12.00
  -6   2 -11   21.96    5.31
   6   2  11   20.78    2.46
  -6   2 -11   15.57   10.31
   6   2  11   12.65    3.71
  -6   2 -11   15.86   10.71
  -8  -2 -11   71.65   16.11
  -8  -2 -11   90.31   11.33
  -8  -2 -11   79.65   15.78
  -8  -2 -11   58.93   12.26
   8  -2  11   83.04    9.35
  -8  -2 -11   97.03   10.43
   8  -2  11   91.61    6.42
  -8   2 -11   77.90   16.80
  -8   2 -11   88.70   16.77
  -8   2 -11   62.58   13.21
   8   2  11   86.15    8.68
  -8   2 -11   66.81   10.12
   8   2  11   79.70    6.64
 -10  -2 -11   10.37   11.08
 -10  -2 -11   12.22    6.48
 -10  -2 -11   15.06    7.92
 -10  -2 -11   -7.15    9.90
  10  -2  11    7.38    4.38
 -10  -2 -11    4.77    5.75
  10  -2  11   11.55    1.87
 -10   2 -11    2.85   11.83
  10   2  11    9.82    2.02
 -10   2 -11   16.81   12.14
 -10   2 -11   -0.37    6.84
  10   2  11    9.13    4.45
 -10   2 -11    5.56    5.57
 -12  -2 -11   -1.97    5.79
  12  -2  11    1.05    1.66
  12  -2  11    6.54    4.88
 -12  -2 -11   11.12   13.35
 -12  -2 -11   -8.88    6.76
 -12  -2 -11    3.67    8.67
 -12  -2 -11   -4.15   12.91
  12   2  11    4.31    5.09
 -12   2 -11   12.44   14.18
 -12   2 -11    1.72   13.39
  12   2  11    1.85    1.66
 -12   2 -11    4.16    7.50
  14  -2  11   28.04    3.51
 -14  -2 -11   37.94   10.00
 -14  -2 -11   20.53    8.16
  14  -2  11   39.17    7.50
 -14  -2 -11   10.18   14.90
 -14  -2 -11   26.60   12.14
 -14  -2 -11   18.59   15.99
  14   2  11   32.26    3.89
 -14   2 -11   40.47   16.78
 -14   2 -11   44.37   18.29
 -15  -3  11   41.85    8.16
  15  -3 -11   70.18   13.42
  15  -3 -11   51.65    7.73
  15  -3 -11   60.06   10.57
  15   3 -11   60.43    9.15
  15   3 -11   60.88   10.64
  15   3 -11   47.82    6.51
 -15   3  11   53.11    5.33
  13  -3 -11   83.83   12.74
  13  -3 -11  103.68   10.40
 -13  -3  11   59.77    8.67
  13  -3 -11   88.33   15.45
  13   3 -11   79.71   10.89
 -13   3  11   76.55    6.96
  13   3 -11  102.41    8.88
  13   3 -11   98.30   13.23
 -11  -3  11   41.54    6.83
  11  -3 -11   46.97    9.73
  11  -3 -11   32.33   11.12
  11  -3 -11   56.74    7.36
 -11  -3  11   42.06    6.00
 -11  -3  11   49.57    4.04
  11   3 -11   37.53    9.09
  11   3 -11   39.03    7.03
  11   3 -11   39.46    5.36
 -11   3  11   43.48    4.52
   9  -3 -11    9.91    4.08
  -9  -3  11   10.88    2.74
   9  -3 -11    4.80    7.54
  -9  -3  11    7.91    1.89
   9  -3 -11    8.84    6.55
  -9  -3  11   16.67    4.48
   9   3 -11   11.89    6.66
  -9   3  11    5.70    1.76
   9   3 -11    7.88    3.16
  -9   3  11    9.64    2.17
   9   3 -11   13.11    4.92
   7  -3 -11   84.61   13.00
  -7  -3  11   76.68    6.61
   7  -3 -11   58.23   12.32
   7  -3 -11   84.31    9.02
  -7  -3  11   82.83    7.06
  -7  -3  11   67.70    8.64
   7  -3 -11   75.06   11.61
  -7   3  11   75.60    6.15
   7   3 -11   78.32    7.36
  -7   3  11   88.54    6.88
   7   3 -11   77.26   10.52
  -7   3  11   75.31    8.10
   7   3 -11   84.65   11.99
   5  -3 -11   36.68    5.91
  -5  -3  11   39.53    4.44
   5  -3 -11   52.75   10.85
   5  -3 -11   63.07   10.70
   5  -3 -11   56.13   10.83
   5  -3 -11   47.41    8.33
  -5  -3  11   49.50    6.43
  -5   3  11   40.12    4.73
   5   3 -11   37.57    4.95
   5   3 -11   44.37    7.60
  -5   3  11   49.92    6.13
   5   3 -11   40.40    8.61
  -5   3  11   47.78    3.81
   3  -3 -11  124.57   13.25
   3  -3 -11  136.59   16.44
  -3  -3  11  139.01   11.75
   3   3 -11  132.15   10.41
  -3   3  11  132.48   11.07
   3   3 -11   97.20   17.21
  -3   3  11  117.74   10.27
   3   3 -11  111.10   15.00
  -3   3  11  129.96    9.49
   3   3 -11  142.03   13.60
  -1  -3  11    1.24    0.50
   1  -3 -11   -5.81    8.72
   1  -3 -11    6.85    6.62
   1  -3 -11   -2.33    4.34
   1  -3 -11    3.11    8.01
  -1  -3  11    0.73    2.51
   1   3 -11    7.30    5.88
   1   3 -11   -3.65    7.49
   1   3 -11   -4.01    4.05
  -1   3  11    2.21    2.61
  -1   3  11    0.72    1.89
  -1   3  11    0.56    0.79
   1   3 -11   -4.33    2.04
   1  -3  11   87.07    8.71
  -1  -3 -11   80.57   10.87
   1  -3  11   99.49    6.41
  -1  -3 -11   71.28   13.85
  -1  -3 -11   65.17   12.41
  -1  -3 -11   47.56   13.93
   1   3  11   86.80    6.72
  -1   3 -11   81.67   15.86
  -1   3 -11   96.14    7.69
  -1   3 -11  105.21   10.08
  -1   3 -11   95.83   12.43
   1   3  11   85.96    8.26
  -1   3 -11   72.16   14.02
   1   3  11   74.41    7.70
   3  -3  11  146.04   12.39
  -3  -3 -11  144.05   18.98
   3  -3  11  145.04   10.23
  -3  -3 -11  105.39   16.16
  -3  -3 -11  133.90   18.46
  -3  -3 -11  135.93   14.31
   3   3  11  136.94   11.71
  -3   3 -11  150.69   13.45
   3   3  11  146.22   10.52
  -3   3 -11  125.63   19.24
   3   3  11  145.69   11.55
  -3   3 -11  172.15   20.71
  -5  -3 -11   40.58   10.22
   5  -3  11   77.64    7.83
  -5  -3 -11   62.15   14.37
  -5  -3 -11   59.92    9.10
   5  -3  11   73.22    5.19
  -5  -3 -11   78.54   15.90
  -5   3 -11   69.34   15.57
   5   3  11   61.87    5.47
  -5   3 -11   75.09   15.58
   5   3  11   69.76    7.31
  -5   3 -11   66.87   10.20
   7  -3  11    0.80    0.90
  -7  -3 -11   -1.54    4.44
  -7  -3 -11    3.37    8.77
  -7  -3 -11    5.63    6.80
  -7  -3 -11   -3.44    4.96
   7  -3  11    4.87    3.73
  -7  -3 -11    9.23   10.22
  -7   3 -11   -2.36    8.98
   7   3  11    3.05    1.27
  -7   3 -11   -1.24    5.57
  -7   3 -11    0.63   10.97
   7   3  11    8.40    3.32
   7   3  11   -0.67    1.21
  -7   3 -11   -0.12    4.20
  -9  -3 -11   78.35   10.41
  -9  -3 -11   72.57    9.79
  -9  -3 -11   66.05   14.75
  -9  -3 -11   40.36   11.07
   9  -3  11   70.87    5.79
   9  -3  11   70.16    8.75
  -9  -3 -11   62.01   14.50
   9   3  11   72.77    5.77
  -9   3 -11   73.48    8.97
  -9   3 -11   71.92   10.49
   9   3  11   68.45    5.97
  -9   3 -11   81.81   17.06
   9   3  11   83.78    8.50
  -9   3 -11   74.24   17.18
  11  -3  11   71.90    5.87
 -11  -3 -11   32.67   14.19
 -11  -3 -11   66.81   12.87
 -11  -3 -11   50.95    9.12
 -11  -3 -11   87.03   11.04
 -11  -3 -11   54.90   15.89
  11  -3  11   66.58    8.52
 -11   3 -11   74.86   17.24
  11   3  11   71.92    6.13
 -11   3 -11   95.18   19.05
 -11   3 -11   59.64   10.06
  11   3  11   82.94    9.15
 -13  -3 -11   20.81    7.47
  13  -3  11   22.65    6.78
  13  -3  11   24.61    3.09
 -13  -3 -11   55.32   17.47
 -13  -3 -11   30.42    8.64
 -13  -3 -11   28.78   11.49
 -13  -3 -11   37.08   15.39
  13   3  11   21.43    3.13
 -13   3 -11   32.09   15.62
 -13   3 -11   11.09   15.76
 -14  -4  11   -4.12    5.22
  14  -4 -11   17.03    9.83
  14  -4 -11   11.43    8.07
  14  -4 -11    6.11    4.56
  14   4 -11    3.10    5.01
 -14   4  11    8.14    2.25
  14   4 -11   11.21    3.72
  14   4 -11   10.51    6.90
 -12  -4  11   54.58    7.18
  12  -4 -11   43.71   11.83
  12  -4 -11   59.70    7.98
 -12  -4  11   51.54    7.65
  12  -4 -11   51.17    9.85
  12   4 -11   60.64    6.98
 -12   4  11   56.60    5.40
  12   4 -11   62.66   11.07
  12   4 -11   59.07    8.87
 -10  -4  11  133.56   12.11
  10  -4 -11  135.34   16.43
 -10  -4  11  136.42   10.29
 -10  -4  11  138.51   13.15
  10  -4 -11  126.68   13.08
  10  -4 -11  144.62   19.72
 -10   4  11  145.13   10.77
  10   4 -11  116.19   13.58
  10   4 -11  146.43   15.88
  10   4 -11  152.08   11.68
   8  -4 -11  101.20   15.97
  -8  -4  11   87.35    7.42
   8  -4 -11   97.63   13.48
  -8  -4  11   88.37    9.41
   8  -4 -11   80.92    9.86
   8   4 -11   67.34   10.38
   8   4 -11  113.22    8.45
  -8   4  11   92.73    7.66
   8   4 -11  112.93   13.17
  -8   4  11   90.25    7.28
  -6  -4  11   27.64    3.63
   6  -4 -11   25.71    8.82
   6  -4 -11   35.82    9.76
   6  -4 -11   29.87    5.66
   6  -4 -11   26.99    7.64
   6  -4 -11   25.56    9.67
  -6  -4  11   28.37    5.23
  -6   4  11   30.45    4.76
  -6   4  11   29.76    3.61
   6   4 -11   34.27    7.79
   6   4 -11   29.56    3.88
   6   4 -11   28.30    6.67
   4  -4 -11   56.88   11.12
   4  -4 -11   30.59    7.39
   4  -4 -11   27.61    9.05
   4  -4 -11   30.42    9.49
  -4  -4  11   42.54    5.68
  -4  -4  11   37.56    4.02
   4   4 -11   35.04    6.61
  -4   4  11   33.09    4.07
   4   4 -11   26.05    7.71
  -4   4  11   38.24    5.04
  -4   4  11   37.62    3.32
   4   4 -11   40.11    4.48
  -2  -4  11   99.69    9.77
   2  -4 -11   90.87   11.74
   2  -4 -11  100.28   15.00
   2  -4 -11   82.97   14.45
   2  -4 -11   95.88   15.90
   2   4 -11  102.00   13.16
  -2   4  11  105.82    7.71
  -2   4  11   90.81    8.39
   2   4 -11  125.22    8.57
  -2   4  11   98.40    9.17
   2   4 -11   91.14   11.01
   0  -4 -11  137.68   15.59
   0  -4  11  165.20   14.01
   0  -4 -11  120.88   17.62
   0  -4 -11  160.11   20.26
   0   4  11  161.33   13.28
   0   4  11  157.23   12.18
   0   4 -11  215.09   21.42
   0   4 -11  190.15   12.74
   0   4 -11  204.18   15.45
   0   4  11  161.64   13.04
   0   4 -11  164.60   17.31
  -2  -4 -11   50.65   12.84
  -2  -4 -11   67.95   10.18
  -2  -4 -11   64.96   14.21
   2  -4  11   90.19    5.86
   2  -4  11   90.81    8.62
  -2  -4 -11   73.87   13.26
  -2   4 -11   96.88   15.77
   2   4  11   69.88    7.08
  -2   4 -11   89.05   15.10
  -2   4 -11   96.58    9.52
  -2   4 -11   70.56   11.12
   2   4  11   85.75    6.39
  -2   4 -11   67.81    6.85
   2   4  11   75.72    7.76
  -4  -4 -11   23.47    8.54
  -4  -4 -11   16.32    9.60
  -4  -4 -11   28.98   11.98
   4  -4  11   34.13    2.75
   4  -4  11   32.21    5.43
  -4  -4 -11   34.82    6.51
  -4   4 -11   32.17   11.20
   4   4  11   28.98    3.22
   4   4  11   32.28    3.23
   4   4  11   34.01    4.66
   4   4  11   27.68    4.25
  -4   4 -11   29.43    6.76
  -4   4 -11   20.67   10.55
  -4   4 -11   39.84    6.24
  -6  -4 -11  110.59   18.70
  -6  -4 -11  140.57   13.49
   6  -4  11  151.37   11.10
  -6  -4 -11  129.63   17.34
  -6  -4 -11  162.12   15.31
   6  -4  11  175.49   13.79
  -6  -4 -11  130.44   20.36
  -6   4 -11  160.17   22.62
   6   4  11  168.46   12.66
  -6   4 -11  160.67   21.50
  -6   4 -11  143.35   13.85
   6   4  11  150.29   11.44
  -6   4 -11  176.22   16.19
   6   4  11  150.34   11.35
  -8  -4 -11  102.89   15.49
   8  -4  11  126.47   12.15
   8  -4  11  135.12    9.15
  -8  -4 -11  127.97   13.64
  -8  -4 -11   77.42   16.56
  -8  -4 -11  109.37   12.33
  -8   4 -11  122.63   20.59
  -8   4 -11  125.46   13.57
   8   4  11  117.55    9.46
  -8   4 -11  126.98   12.24
  -8   4 -11  111.29   19.37
   8   4  11  134.01   11.21
   8   4  11  121.40    9.32
  10  -4  11   20.34    5.69
 -10  -4 -11   15.39    9.22
 -10  -4 -11   23.34    6.98
  10  -4  11   27.59    3.02
 -10  -4 -11   15.78   12.86
 -10  -4 -11    5.82   11.45
 -10  -4 -11    9.73    5.78
  10   4  11   24.53    2.87
 -10   4 -11   16.46   13.91
 -10   4 -11   26.79    6.57
  10   4  11   26.50    3.17
  10   4  11   27.70    5.99
 -10   4 -11   20.60   13.11
 -12  -4 -11   27.61   15.09
 -12  -4 -11    8.36   13.22
 -12  -4 -11   18.44    7.30
  12  -4  11    7.46    8.23
 -12  -4 -11   21.05    8.19
 -12  -4 -11   20.94   10.00
  12  -4  11   18.09    2.65
 -12   4 -11   26.51   15.03
  12   4  11   25.37    3.19
 -12   4 -11   49.56   17.24
 -14  -4 -11   47.06    9.69
 -14  -4 -11   33.95   17.78
 -14  -4 -11   35.11   17.99
  14  -4  11   50.82    5.10
 -14  -4 -11   75.93   14.92
  14  -4  11   42.94    8.43
 -14  -4 -11   54.44   11.35
  14   4  11   59.04    5.48
 -14   4 -11    8.61   17.57
 -14   4 -11   46.59   18.14
  15  -5 -11   87.64   10.86
 -15  -5  11   67.15   10.38
  15  -5 -11   87.55   13.18
  15  -5 -11   91.97   15.61
  15   5 -11  104.66    9.30
 -15   5  11   83.39    7.59
  15   5 -11   85.43   11.25
  13  -5 -11  189.16   23.63
 -13  -5  11  174.43   16.52
  13  -5 -11  202.72   20.74
 -13  -5  11  185.06   17.20
  13  -5 -11  184.58   17.17
 -13   5  11  172.21   14.36
  13   5 -11  206.56   19.72
  13   5 -11  202.52   15.37
  13   5 -11  219.02   18.04
 -11  -5  11    7.40    4.14
  11  -5 -11    2.17    9.20
  11  -5 -11   17.28    8.20
  11  -5 -11   10.39    4.69
 -11  -5  11    5.16    4.62
  11   5 -11    8.69    4.70
  11   5 -11    4.82    3.08
  11   5 -11    8.77    5.87
 -11   5  11    5.94    2.03
  -9  -5  11    0.10    2.92
   9  -5 -11   -6.58    3.66
   9  -5 -11    5.30    9.24
  -9  -5  11   -0.02    1.53
  -9  -5  11   -1.18    3.70
   9  -5 -11   -3.86    6.05
   9   5 -11    5.63    5.20
   9   5 -11    3.69    4.09
   9   5 -11    3.33    2.79
  -9   5  11   -0.32    1.75
  -9   5  11   -1.48    1.41
  -7  -5  11   87.59    8.42
   7  -5 -11   95.81   12.98
   7  -5 -11   73.12   14.58
   7  -5 -11  114.03   15.03
  -7  -5  11   86.48    9.83
  -7  -5  11   84.59    7.20
   7  -5 -11   85.47    9.63
   7   5 -11  104.55    7.63
   7   5 -11   77.82   10.41
   7   5 -11   91.92   12.19
  -7   5  11   82.78    7.41
  -7   5  11   80.83    6.95
   5  -5 -11  206.07   20.67
   5  -5 -11  150.00   19.85
  -5  -5  11  188.02   13.55
  -5  -5  11  174.34   14.98
   5  -5 -11  174.94   17.72
   5  -5 -11  186.35   15.34
   5  -5 -11  174.14   19.60
  -5   5  11  173.90   13.17
  -5   5  11  180.46   13.72
   5   5 -11  191.06   18.05
   5   5 -11  160.59   16.14
  -3  -5  11   53.47    6.91
   3  -5 -11   42.75   10.51
   3  -5 -11   35.86   12.70
   3  -5 -11   48.91   11.44
   3  -5 -11   36.47    8.06
   3   5 -11   29.80    7.06
  -3   5  11   52.22    4.36
  -3   5  11   47.20    6.03
  -3   5  11   54.16    5.05
   3   5 -11   55.21    4.87
   3   5 -11   57.47   10.11
   1  -5 -11    4.79    8.43
  -1  -5  11    5.35    3.22
   1  -5 -11  -10.08    8.16
   1  -5 -11    6.92    6.03
   1  -5 -11    0.42    4.26
  -1   5  11   -0.46    1.09
   1   5 -11   -5.17    5.01
  -1   5  11   -1.24    2.53
  -1   5  11    1.34    1.83
   1   5 -11    5.18    1.87
   1   5 -11    3.72    7.99
   1   5 -11    3.58    5.06
  -1  -5 -11   54.37   12.84
  -1  -5 -11   42.67    7.89
  -1  -5 -11   36.12   10.21
   1  -5  11   54.45    6.85
  -1  -5 -11   46.46   13.16
   1   5  11   49.36    4.24
   1   5  11   55.32    5.90
  -1   5 -11   40.39    4.48
  -1   5 -11   58.01   13.29
  -1   5 -11   59.31    7.27
   1   5  11   44.62    5.26
  -1   5 -11   51.34    8.53
   3  -5  11  268.75   17.49
  -3  -5 -11  199.93   23.26
  -3  -5 -11  240.88   21.31
  -3  -5 -11  199.05   24.75
  -3  -5 -11  223.10   25.43
   3  -5  11  262.09   19.97
   3   5  11  246.92   18.69
   3   5  11  232.37   18.72
   3   5  11  243.43   17.94
   3   5  11  250.73   18.03
  -3   5 -11  273.26   26.87
  -3   5 -11  271.44   20.13
   5  -5  11   93.51   10.08
  -5  -5 -11   93.42   11.54
  -5  -5 -11   85.85   14.04
  -5  -5 -11   90.54    9.75
  -5  -5 -11   77.75   15.80
  -5  -5 -11   69.22   15.28
   5  -5  11  104.56    7.05
  -5   5 -11   85.30    9.87
  -5   5 -11  107.50   12.83
   5   5  11   93.54    8.95
   5   5  11   92.42    8.63
  -5   5 -11   90.44   16.58
   5   5  11  100.72    7.57
   5   5  11   92.46    7.51
  -5   5 -11   98.59   17.48
   7  -5  11   10.23    1.39
  -7  -5 -11   10.96    6.93
  -7  -5 -11   -8.17    9.57
  -7  -5 -11   -1.86    9.45
  -7  -5 -11   15.64    5.63
   7  -5  11    7.82    4.07
  -7  -5 -11    8.48    7.27
  -7   5 -11    0.41    4.59
   7   5  11    5.37    3.43
   7   5  11    8.33    2.96
  -7   5 -11    3.91   10.24
  -7   5 -11    8.35   12.17
   7   5  11    9.07    1.95
  -7   5 -11   12.80    4.32
   7   5  11    2.58    1.59
  -9  -5 -11   16.97   11.38
  -9  -5 -11   39.64    8.08
  -9  -5 -11    7.91   11.99
   9  -5  11   32.26    3.02
   9  -5  11   33.05    6.16
  -9  -5 -11   30.48    6.62
  -9  -5 -11   31.42   10.28
  -9   5 -11   32.81    6.37
  -9   5 -11   45.77   13.85
   9   5  11   24.65    3.28
  -9   5 -11   10.78   12.23
   9   5  11   27.07    3.34
  11  -5  11   80.55    6.43
 -11  -5 -11   67.36   17.46
 -11  -5 -11   78.31   14.43
 -11  -5 -11   67.67   10.08
 -11  -5 -11   80.64   17.94
 -11  -5 -11   71.01   10.74
 -11   5 -11   78.21   18.55
 -11   5 -11   42.90   15.43
  11   5  11   89.02    6.80
  11   5  11   77.51    6.90
 -13  -5 -11   80.28   20.35
 -13  -5 -11   75.57   11.46
 -13  -5 -11  110.07   13.61
 -13  -5 -11   58.67   14.61
  13  -5  11   92.86   12.12
 -13  -5 -11   65.59   19.26
 -13   5 -11  102.98   20.82
  13   5  11   90.74    7.36
 -13   5 -11   40.45   17.14
  14  -6 -11   12.67    9.05
  14  -6 -11   -0.52   10.80
 -14  -6  11    8.10    5.81
  14  -6 -11    8.37    5.26
 -14  -6  11   19.37    6.42
  14   6 -11    6.21    3.60
  14   6 -11   13.85    5.87
 -14   6  11   12.27    2.59
 -12  -6  11   10.32    4.68
  12  -6 -11   11.30    5.05
 -12  -6  11   20.05    5.90
  12  -6 -11   15.25   10.12
  12  -6 -11   11.57    8.43
  12   6 -11   20.55    7.75
  12   6 -11   14.21    3.73
 -12   6  11   16.49    2.66
  12   6 -11   13.54    4.91
  10  -6 -11   86.10   14.24
  10  -6 -11   97.07   12.05
 -10  -6  11  116.02   12.18
  10  -6 -11  109.94   18.43
 -10  -6  11  116.16   10.81
 -10   6  11  110.31    9.18
  10   6 -11  137.19   14.45
  10   6 -11  131.25   10.04
  10   6 -11  136.68   12.47
 -10   6  11  119.71    9.48
  -8  -6  11  156.31   13.82
  -8  -6  11  166.47   15.19
   8  -6 -11  186.64   15.44
  -8  -6  11  167.68   12.57
   8  -6 -11  171.87   18.84
   8  -6 -11  192.76   18.61
   8  -6 -11  129.22   20.21
   8   6 -11  193.62   13.02
  -8   6  11  158.09   12.60
   8   6 -11  179.09   15.68
  -8   6  11  143.17   12.76
   8   6 -11  189.23   17.38
   6  -6 -11   42.17   10.47
   6  -6 -11   37.50   10.88
   6  -6 -11   39.16    6.12
   6  -6 -11   34.84    8.51
  -6  -6  11   40.06    6.62
  -6  -6  11   46.66    4.41
   6  -6 -11   38.07   10.82
  -6   6  11   36.07    4.30
   6   6 -11   36.51    4.25
   6   6 -11   52.29    9.39
  -6   6  11   39.24    3.82
   6   6 -11   39.28    7.15
   4  -6 -11   78.20   13.58
   4  -6 -11   87.38   15.81
   4  -6 -11   62.65   11.07
  -4  -6  11   80.84    8.95
   4  -6 -11   60.55   13.08
  -4   6  11   88.89    7.31
   4   6 -11  104.13   11.93
  -4   6  11   89.34    6.66
   4   6 -11   84.14   10.22
   4   6 -11   75.10    6.66
   2  -6 -11  203.66   21.70
  -2  -6  11  204.26   16.48
   2  -6 -11  214.24   18.68
   2  -6 -11  149.94   21.78
   2   6 -11  209.68   18.81
   2   6 -11  214.10   17.53
  -2   6  11  206.27   14.60
   2   6 -11  173.04   14.30
  -2   6  11  206.31   15.17
   0  -6  11  124.56   11.55
   0  -6 -11  136.15   19.61
   0  -6 -11  115.32   17.66
   0  -6 -11  108.62   13.11
   0  -6 -11   92.82   15.31
   0   6 -11  143.00   14.25
   0   6 -11  134.19    9.16
   0   6  11  123.76   10.28
   0   6  11  131.35   10.57
   0   6  11  119.47    9.48
  -2  -6 -11   12.40    9.66
   2  -6  11    7.74    3.80
  -2  -6 -11   12.94    5.30
  -2  -6 -11   15.47    9.77
  -2  -6 -11    9.56    6.90
  -2   6 -11    5.13    3.77
   2   6  11   10.18    3.15
  -2   6 -11    4.27    8.87
  -2   6 -11   12.37    5.62
   2   6  11    6.45    2.04
   2   6  11    9.07    1.68
   2   6  11    7.25    2.53
  -4  -6 -11   36.60   12.76
  -4  -6 -11   51.75   13.51
   4  -6  11   35.52    5.62
  -4  -6 -11   17.22    8.41
  -4  -6 -11   29.57    6.71
  -4   6 -11   25.79    5.22
  -4   6 -11   41.07    9.64
   4   6  11   30.35    4.24
   4   6  11   37.96    4.64
   4   6  11   30.65    3.88
  -4   6 -11   35.06   12.12
   4   6  11   33.09    3.45
  -6  -6 -11   87.38   14.45
   6  -6  11   86.52    6.98
   6  -6  11  101.78   10.57
  -6  -6 -11   87.03   11.45
  -6  -6 -11   55.44   15.06
  -6  -6 -11   74.89   15.76
  -6  -6 -11   92.02    9.75
   6   6  11  101.10    7.84
  -6   6 -11  104.73   18.74
   6   6  11   81.47    8.43
  -6   6 -11  112.42   10.74
  -6   6 -11  123.53    9.80
   6   6  11  100.62    8.56
   6   6  11   90.40    7.55
   8  -6  11  101.69   11.49
  -8  -6 -11  102.31   13.00
  -8  -6 -11   99.92   15.59
  -8  -6 -11   91.18   11.38
  -8  -6 -11  128.04   19.75
   8  -6  11  109.75    7.96
  -8  -6 -11   88.49   18.43
   8   6  11   99.58    9.77
  -8   6 -11  128.09   11.12
   8   6  11  105.28    8.49
  -8   6 -11   95.58   18.44
  -8   6 -11  101.45   19.04
   8   6  11  104.98    8.55
 -10  -6 -11   41.22   14.14
 -10  -6 -11   39.54    7.92
 -10  -6 -11   41.57    8.98
  10  -6  11   42.14    4.17
  10  -6  11   43.31    8.31
 -10  -6 -11   30.75   14.67
 -10  -6 -11   31.62   10.66
 -10   6 -11   37.97   15.11
  10   6  11   41.60    5.66
 -10   6 -11   75.00   18.54
  10   6  11   43.87    4.84
  10   6  11   50.11    4.60
  12  -6  11   11.94    5.94
 -12  -6 -11    2.84   13.16
 -12  -6 -11   12.81    7.91
 -12  -6 -11   11.12   10.20
 -12  -6 -11   15.05    6.93
 -12  -6 -11   -3.41   12.32
  12   6  11    7.65    2.54
  12   6  11    7.57    4.36
  12   6  11    3.51    2.21
 -12   6 -11   10.53   14.33
 -12   6 -11   63.50   17.54
  13  -7 -11   56.78   12.08
  13  -7 -11   75.34   15.51
 -13  -7  11   57.92    8.39
  13  -7 -11   59.54    8.85
 -13  -7  11   55.19    8.72
 -13   7  11   58.68    6.03
  13   7 -11   71.46    9.33
  13   7 -11   78.66    7.28
  11  -7 -11   68.57    9.49
 -11  -7  11   68.25   10.89
  11  -7 -11   52.54   11.69
  11  -7 -11   72.96   15.10
 -11  -7  11   59.08    8.56
  11   7 -11   58.02    8.70
 -11   7  11   77.30    6.32
  11   7 -11   73.85    6.91
   9  -7 -11    4.49    8.57
   9  -7 -11    3.96    4.17
  -9  -7  11   11.22    4.59
   9  -7 -11   -0.62    7.53
  -9  -7  11    3.45    3.25
   9   7 -11    2.71    2.49
   9   7 -11   -3.94    4.73
  -9   7  11    1.78    1.72
  -9   7  11    4.87    1.85
   9   7 -11    1.05    3.92
  -7  -7  11   49.61    6.79
   7  -7 -11   48.33    7.22
   7  -7 -11   55.45   11.49
   7  -7 -11   32.95    8.84
  -7  -7  11   47.61    4.51
  -7  -7  11   41.53    5.61
   7  -7 -11   25.53   11.27
   7  -7 -11   67.42   12.07
   7   7 -11   35.51    6.80
  -7   7  11   44.02    4.11
  -7   7  11   45.86    4.69
   7   7 -11   29.62    4.27
   7   7 -11   43.74    8.06
  -5  -7  11  104.99   11.83
  -5  -7  11  127.74    9.81
   5  -7 -11  112.73   16.37
   5  -7 -11   97.83   14.29
   5  -7 -11  127.92   17.70
   5  -7 -11  111.40   17.40
   5   7 -11  126.37    9.30
   5   7 -11  143.34   12.52
   5   7 -11  131.98   13.81
  -5   7  11  119.38    9.48
  -5   7  11  125.13    9.94
   3  -7 -11   52.10   13.22
   3  -7 -11   43.04   11.55
   3  -7 -11   49.63   12.61
  -3  -7  11   63.75    8.15
   3  -7 -11   45.97    8.75
   3   7 -11   57.99    4.70
  -3   7  11   65.45    5.71
   3   7 -11   47.04    8.55
  -3   7  11   55.86    5.04
   1  -7 -11    0.23    8.67
   1  -7 -11   -0.71   10.07
   1  -7 -11   -2.83    4.65
   1  -7 -11    6.75    7.09
  -1  -7  11    0.62    3.14
   1   7 -11   -2.07    3.91
   1   7 -11    1.93    4.77
  -1   7  11    0.77    1.30
  -1   7  11    1.80    1.93
   1   7 -11    0.70    1.10
  -1  -7 -11   54.00   13.22
  -1  -7 -11   49.25    8.45
   1  -7  11   74.61    8.21
  -1  -7 -11   42.70   13.38
  -1  -7 -11   69.04   12.48
   1   7  11   50.88    5.98
  -1   7 -11   68.16    9.73
   1   7  11   63.49    5.28
   1   7  11   61.65    5.66
  -3  -7 -11   84.29   12.04
  -3  -7 -11  128.47   19.00
   3  -7  11  126.54   11.57
  -3  -7 -11   82.34   17.24
  -3  -7 -11   87.42   14.81
  -3   7 -11  122.85   19.17
   3   7  11  122.75    9.68
  -3   7 -11  117.14   13.02
  -3   7 -11  133.37   10.83
   3   7  11  105.33    8.68
   3   7  11  108.31    9.00
  -5  -7 -11   49.87   13.89
  -5  -7 -11   68.63    7.79
   5  -7  11   59.78    7.94
  -5  -7 -11   73.15    9.74
  -5  -7 -11   51.53   13.87
  -5  -7 -11   45.62   11.22
  -5   7 -11   58.45    8.17
  -5   7 -11   75.21   15.76
   5   7  11   59.34    5.63
   5   7  11   54.54    5.36
   5   7  11   65.33    6.52
  -5   7 -11   67.40    7.42
  -7  -7 -11   -0.84    4.97
  -7  -7 -11   -6.62   10.10
  -7  -7 -11    4.19    7.79
  -7  -7 -11   10.74   10.40
  -7  -7 -11   -3.01    4.65
   7  -7  11   -2.93    4.21
   7   7  11   -1.85    1.41
   7   7  11    2.95    2.77
  -7   7 -11   -7.30   11.45
  -7   7 -11    1.36    3.68
   7   7  11    5.63    2.06
  -9  -7 -11   33.03   13.50
  -9  -7 -11   20.48    9.45
  -9  -7 -11   21.84    6.60
   9  -7  11   18.56    2.09
   9  -7  11   25.92    6.30
  -9  -7 -11   11.17   10.99
  -9  -7 -11   24.10    7.52
   9   7  11   21.59    2.94
   9   7  11   15.70    4.12
   9   7  11   15.93    2.86
  -9   7 -11   11.70   12.77
 -11  -7 -11   41.66   12.85
 -11  -7 -11   57.71   10.80
  11  -7  11   59.17    8.84
 -11  -7 -11   59.71    9.77
 -11  -7 -11   75.71   17.85
 -11  -7 -11   34.19   15.07
  11   7  11   61.71    7.80
  11   7  11   55.43    5.95
 -11   7 -11   63.99   16.96
  11   7  11   61.01    5.61
  12  -8 -11   13.57   11.78
  12  -8 -11   12.03    5.40
  12  -8 -11  -16.05    8.75
 -12  -8  11    5.80    5.62
 -12  -8  11    2.69    4.75
  12   8 -11    8.01    2.96
  12   8 -11    6.80    2.83
 -12   8  11    4.69    2.17
  12   8 -11   -2.01    4.50
  10  -8 -11   58.18    9.14
  10  -8 -11   57.61   11.85
 -10  -8  11   79.33    8.97
  10  -8 -11   49.70   14.34
  10   8 -11   83.50   10.01
 -10   8  11   84.63    6.81
  10   8 -11   83.24    6.95
  10   8 -11   64.67    6.66
 -10   8  11   74.58    6.50
  -8  -8  11   80.73    8.78
   8  -8 -11   78.02   12.95
   8  -8 -11   75.92   10.26
   8  -8 -11   87.65   16.23
  -8  -8  11   81.58   10.78
   8   8 -11   92.39    7.07
   8   8 -11   92.53   10.32
  -8   8  11   87.44    7.42
  -8   8  11   75.99    7.03
   8   8 -11   89.81    7.29
   6  -8 -11   16.27    9.20
  -6  -8  11    6.89    4.79
   6  -8 -11    4.30    4.06
  -6  -8  11    7.93    2.24
   6  -8 -11   24.82   10.21
   6  -8 -11    2.07    6.32
   6  -8 -11   10.06    9.46
   6   8 -11    8.34    4.31
   6   8 -11    3.17    1.78
   6   8 -11    4.62    4.88
  -6   8  11    5.46    2.01
  -6   8  11    3.25    1.71
   4  -8 -11    0.53    6.23
   4  -8 -11    6.41   10.46
   4  -8 -11    4.30   10.24
   4  -8 -11    0.50    7.89
  -4  -8  11    9.02    4.13
  -4   8  11    7.62    2.20
   4   8 -11    9.14    5.14
   4   8 -11    4.00    1.59
  -4   8  11    9.25    1.90
   4   8 -11    9.43    4.06
   2  -8 -11   93.99   11.80
  -2  -8  11   84.41    9.47
   2  -8 -11   55.56   12.82
   2  -8 -11   56.45   14.01
   2  -8 -11   68.89   15.44
  -2   8  11   70.38    6.93
   2   8 -11  103.40   10.75
  -2   8  11   80.45    6.53
   2   8 -11   88.40    9.25
   2   8 -11   73.25    6.06
   0  -8 -11   73.64   14.23
   0  -8 -11   64.45   14.98
   0  -8 -11   83.84   16.12
   0  -8  11   72.97    8.95
   0  -8 -11   73.72   11.17
   0   8  11   76.72    6.82
   0   8  11   80.11    7.25
   0   8 -11   92.93    6.36
   0   8 -11   95.25    9.58
   0   8 -11   70.43   10.12
   0   8  11   92.50    7.53
  -2  -8 -11    2.57   10.06
   2  -8  11    9.32    4.34
  -2  -8 -11    4.28    5.19
  -2  -8 -11   -3.99    6.43
  -2  -8 -11    9.43    9.82
   2   8  11    9.78    2.40
  -2   8 -11    9.96    4.87
  -2   8 -11    8.90    4.26
   2   8  11    9.72    2.66
   2   8  11   10.00    2.00
  -4  -8 -11    9.47    4.90
  -4  -8 -11  -11.03    9.52
  -4  -8 -11   -1.30    3.69
  -4  -8 -11    4.76    7.38
   4  -8  11    3.26    4.33
  -4  -8 -11    3.26   10.52
   4   8  11    1.06    1.51
   4   8  11    3.55    1.97
   4   8  11    3.76    2.55
  -4   8 -11    6.37    3.85
  -4   8 -11    5.26    3.25
  -6  -8 -11   70.53   15.70
   6  -8  11   64.90    8.38
  -6  -8 -11   66.45    8.27
  -6  -8 -11   53.77   14.37
  -6  -8 -11   64.51   13.19
  -6  -8 -11   56.86    9.22
   6   8  11   57.10    5.49
   6   8  11   66.84    6.88
   6   8  11   56.40    5.76
  -8  -8 -11   80.67   15.58
  -8  -8 -11  102.79   12.14
  -8  -8 -11  104.86   19.51
  -8  -8 -11   94.93   12.91
   8  -8  11  103.62   11.94
  -8  -8 -11   95.94   19.58
  -8   8 -11  156.62   22.13
   8   8  11   96.62    8.16
   8   8  11   96.57    8.32
   8   8  11  102.84    9.39
 -10  -8 -11   16.66   11.93
 -10  -8 -11    7.00    9.33
  10  -8  11    3.77    5.36
 -10  -8 -11   10.11    6.75
 -10  -8 -11   10.68    7.51
 -10  -8 -11   -1.93   12.63
  10   8  11    5.37    2.42
  10   8  11    0.42    3.66
  10   8  11    2.82    2.15
 -10   8 -11   -3.37   12.43
  11  -9 -11    2.38    9.56
 -11  -9  11   10.79    4.92
 -11  -9  11    5.30    6.03
  11  -9 -11   12.57   11.58
  11  -9 -11   10.62    5.38
  11   9 -11    3.30    2.55
  11   9 -11   10.13    2.74
 -11   9  11    6.83    2.31
 -11   9  11    9.57    2.59
  11   9 -11    8.10    4.91
   9  -9 -11   10.79    5.17
  -9  -9  11    1.58    6.18
   9  -9 -11   21.73    9.13
   9  -9 -11   10.39   10.75
  -9  -9  11   15.85    4.77
  -9   9  11   10.88    2.51
  -9   9  11   14.08    2.57
   9   9 -11   19.15    2.97
   9   9 -11   15.45    4.84
  -7  -9  11   19.08    4.46
   7  -9 -11    6.57    4.79
   7  -9 -11   42.00   10.68
   7  -9 -11   13.99    7.81
  -7  -9  11   16.19    5.26
   7  -9 -11   18.91    9.93
  -7   9  11   11.94    2.52
   7   9 -11   13.61    2.46
   7   9 -11   12.68    4.67
  -7   9  11   13.40    2.34
   5  -9 -11   -2.40    6.07
   5  -9 -11    6.01    9.18
   5  -9 -11   -4.49   10.45
  -5  -9  11    7.51    4.34
  -5  -9  11    2.97    2.33
  -5   9  11    0.96    1.59
  -5   9  11    0.45    1.90
   5   9 -11    3.41    1.65
   5   9 -11    6.65    4.17
   3  -9 -11   16.73    9.48
   3  -9 -11    5.41    6.54
   3  -9 -11    5.77   11.93
   3  -9 -11   10.33   12.58
  -3  -9  11    9.40    4.45
  -3   9  11   15.86    2.34
   3   9 -11    9.41    4.34
  -3   9  11   10.75    2.43
   3   9 -11   17.67    5.96
   3   9 -11   16.45    2.14
   1  -9 -11   16.20   11.10
   1  -9 -11   -1.73    8.09
   1  -9 -11    4.30    5.24
  -1  -9  11    4.60    3.88
   1  -9 -11    3.65   11.30
  -1   9  11   10.31    2.08
  -1   9  11    7.67    2.48
   1   9 -11    9.04    4.24
   1   9 -11   11.11    1.71
   1   9 -11   14.56    5.10
  -1  -9 -11   20.27    6.45
  -1  -9 -11   -1.49   10.88
   1  -9  11   16.22    4.98
  -1  -9 -11    5.11   10.99
  -1  -9 -11    7.68    8.01
   1   9  11   25.64    3.45
   1   9  11   24.02    2.95
   1   9  11   22.34    3.58
  -1   9 -11   18.26    4.59
  -3  -9 -11   34.66   12.36
  -3  -9 -11   19.59    8.70
  -3  -9 -11   17.41    5.93
  -3  -9 -11   15.92   10.37
   3  -9  11   32.56    6.18
  -3   9 -11   24.24    4.42
   3   9  11   21.66    3.30
   3   9  11   25.76    3.98
   3   9  11   23.29    2.97
  -5  -9 -11   22.70   12.26
  -5  -9 -11   19.10    6.25
   5  -9  11   30.11    8.28
  -5  -9 -11   14.76    9.12
  -5  -9 -11   25.31   12.19
  -5  -9 -11   30.74    4.74
   5   9  11   21.80    4.02
   5   9  11   21.02    3.18
   5   9  11   24.88    3.14
  -7  -9 -11   -8.90   10.35
   7  -9  11    3.13    5.17
  -7  -9 -11   -8.27   10.56
  -7  -9 -11    9.77    5.75
  -7  -9 -11    1.34    8.62
  -7  -9 -11   10.24    6.03
   7   9  11    3.88    2.14
   7   9  11    3.08    2.95
   7   9  11    0.10    1.54
  -9  -9 -11   33.76    7.91
  -9  -9 -11   24.34   14.03
  -9  -9 -11   36.45   14.00
   9  -9  11   28.10    7.53
  -9  -9 -11   34.82   11.80
  -9  -9 -11   43.42    9.04
   9   9  11   26.25    4.86
   9   9  11   32.67    4.04
   9   9  11   40.04    4.85
  10 -10 -11    4.98    4.74
  10 -10 -11   -8.77   11.16
 -10 -10  11    2.47    4.27
 -10 -10  11   -1.99    6.06
  10 -10 -11    5.21    9.55
 -10  10  11   -3.97    1.69
  10  10 -11    0.12    2.22
 -10  10  11    3.64    2.02
   8 -10 -11   15.68    8.75
   8 -10 -11   11.93    5.43
  -8 -10  11    4.29    6.12
   8 -10 -11   -3.14    9.74
  -8 -10  11    5.02    4.03
   8  10 -11   13.70    5.19
  -8  10  11    6.85    2.26
   8  10 -11    8.83    2.30
  -8  10  11    1.87    2.30
   6 -10 -11   -2.88    8.88
   6 -10 -11    1.73    7.45
   6 -10 -11   -1.51   10.62
   6 -10 -11   -1.37    4.03
  -6 -10  11    4.61    5.44
   6  10 -11    4.68    4.14
  -6  10  11    0.37    1.96
   6  10 -11    3.30    1.90
  -6  10  11    0.24    1.76
   4 -10 -11   -0.85   12.27
  -4 -10  11    7.16    4.55
   4 -10 -11   10.14    6.52
   4 -10 -11   12.61   10.01
   4 -10 -11   24.94   15.14
   4  10 -11    7.10    4.21
  -4  10  11    5.82    1.98
  -4  10  11    7.88    2.18
   4  10 -11    3.83    1.94
  -2 -10  11   10.99    5.27
   2 -10 -11    6.84    6.63
   2 -10 -11    5.88   12.37
   2 -10 -11   -1.22   12.28
   2 -10 -11   18.72    9.35
   2  10 -11   12.24    2.00
  -2  10  11   11.74    2.60
  -2  10  11   11.07    2.15
   2  10 -11    7.12    4.03
   0 -10 -11    1.56    8.37
   0 -10  11    1.84    4.60
   0 -10 -11    1.48   11.44
   0 -10 -11   -0.07    5.57
   0 -10 -11    0.50   11.59
   0  10  11   -4.93    1.98
   0  10  11    0.69    2.09
   0  10  11    0.68    1.45
   0  10 -11   -0.36    3.57
  -2 -10 -11   18.47   11.91
  -2 -10 -11   24.73   12.43
  -2 -10 -11   -2.73    4.94
   2 -10  11    7.36    5.54
  -2 -10 -11    6.43    7.83
   2  10  11    4.67    1.84
  -2  10 -11    7.29    4.29
   2  10  11    4.41    2.32
   2  10  11    1.03    2.36
  -4 -10 -11   21.55   12.75
  -4 -10 -11    3.57    5.73
   4 -10  11    5.21    5.44
  -4 -10 -11   -7.17   10.50
  -4 -10 -11  -10.22    7.47
   4  10  11    4.23    2.77
   4  10  11    4.55    2.40
   4  10  11    2.10    1.93
  -6 -10 -11   10.64   12.06
  -6 -10 -11    9.01   11.99
   6 -10  11    7.07    5.83
  -6 -10 -11    9.08    6.10
  -6 -10 -11   17.20    9.23
   6  10  11    6.48    2.01
   6  10  11    1.75    2.26
   6  10  11    6.26    3.24
  -8 -10 -11    2.18    6.62
  -8 -10 -11   -0.61   12.44
   8 -10  11    9.72    6.26
  -8 -10 -11    1.98    6.48
  -8 -10 -11    1.99   11.99
  -8 -10 -11    8.46    9.60
   8  10  11    3.33    2.45
   8  10  11    1.21    2.04
   8  10  11    2.01    3.46
  -9 -11  11   -2.98    4.30
   9 -11 -11    4.29    9.84
   9 -11 -11   -3.30   11.72
  -9 -11  11    7.35    6.91
   9 -11 -11   -2.45    4.86
   9  11 -11    1.13    2.47
  -9  11  11   -0.51    2.04
  -9  11  11    1.43    2.08
  -7 -11  11   14.11    6.62
  -7 -11  11    7.72    4.29
   7 -11 -11   13.86    8.90
   7 -11 -11    4.86    5.06
   7 -11 -11    5.96   10.75
  -7  11  11    6.06    2.35
  -7  11  11   11.24    2.53
   7  11 -11    8.23    2.42
   5 -11 -11   -1.70   14.47
   5 -11 -11    0.74    9.76
  -5 -11  11    9.32    5.59
   5 -11 -11   -4.62    7.01
  -5  11  11    5.21    2.29
   5  11 -11    6.08    2.21
  -5  11  11    2.87    2.08
   3 -11 -11    8.19    7.28
   3 -11 -11   10.77   13.56
   3 -11 -11    7.66   14.23
  -3 -11  11    4.27    5.89
   3 -11 -11   -7.75    8.79
  -3  11  11    6.68    2.43
   3  11 -11    3.04    2.06
  -3  11  11    3.75    1.82
   1 -11 -11   11.67   12.98
   1 -11 -11    2.57   12.82
  -1 -11  11   10.32    5.16
   1 -11 -11    5.93    9.60
   1 -11 -11    1.44    6.38
  -1  11  11    3.58    2.36
  -1  11  11    2.80    2.01
  -1  11  11    1.85    2.47
  -1 -11 -11    4.08   11.97
  -1 -11 -11  -16.08   11.61
  -1 -11 -11   15.89    6.73
   1 -11  11   26.46    6.24
  -1 -11 -11   10.87   10.10
   1  11  11   14.90    2.77
   1  11  11   22.60    3.46
   1  11  11   17.88    3.43
  -3 -11 -11   -0.41    5.69
  -3 -11 -11  -13.56   11.27
  -3 -11 -11    3.83   12.02
  -3 -11 -11   -4.22    8.18
   3 -11  11   14.67    6.10
   3  11  11    0.46    2.24
   3  11  11   -0.91    2.50
   3  11  11    3.40    1.97
   5 -11  11   22.83    6.88
  -5 -11 -11   19.06   10.89
  -5 -11 -11   13.18   11.96
  -5 -11 -11   30.60   13.92
  -5 -11 -11   29.60    7.53
   5  11  11   25.77    3.99
   5  11  11   16.50    3.05
   5  11  11   16.84    3.38
  -7 -11 -11    9.26   13.93
  -7 -11 -11  -12.97   13.01
  -7 -11 -11   -6.01    6.34
  -7 -11 -11    4.17    9.97
   7 -11  11   -1.18    6.14
   7  11  11   -0.02    3.29
   7  11  11   -2.27    2.49
   7  11  11   -0.07    2.04
  -6 -12  11    1.55    4.34
   6 -12 -11    6.09    4.65
   6 -12 -11   -9.89    8.23
  -6 -12  11   11.79    6.72
   6 -12 -11    0.08   11.57
  -6  12  11   -0.03    2.11
  -6  12  11    0.46    2.16
   6  12 -11   -0.14    2.30
   4 -12 -11   16.34   16.13
  -4 -12  11    6.88    5.96
   4 -12 -11   -4.58    7.81
   4 -12 -11    7.17   10.07
  -4  12  11    0.44    2.11
  -4  12  11    3.13    2.04
   4  12 -11    0.94    2.16
   2 -12 -11   28.09   16.02
  -2 -12  11   -1.76    5.99
   2 -12 -11   25.65   12.09
   2 -12 -11   -2.78    7.28
   2 -12 -11   23.24   14.94
  -2  12  11   11.36    2.49
  -2  12  11    2.87    2.47
   0 -12 -11   42.64    9.50
   0 -12 -11   30.64   12.60
   0 -12 -11   47.91   16.51
   0 -12  11   60.71    8.93
   0 -12 -11   37.25   14.82
   0  12  11   51.51    6.16
   0  12  11   55.14    5.79
   0  12  11   52.30    5.29
  -2 -12 -11   -5.39   12.21
   2 -12  11   18.18    6.43
  -2 -12 -11    8.17    9.31
  -2 -12 -11    1.60    6.04
  -2 -12 -11   15.19   13.78
   2  12  11    2.81    2.87
   2  12  11    4.72    2.75
   2  12  11    3.20    2.05
  -4 -12 -11    0.21   10.43
   4 -12  11   -1.05    5.94
  -4 -12 -11    9.33    6.40
  -4 -12 -11    5.90   13.44
  -4 -12 -11    4.98   13.66
   4  12  11    1.23    2.73
   4  12  11   -1.53    2.02
   4  12  11    5.13    2.81
  -6 -12 -11   23.64   14.51
  -6 -12 -11   22.27    7.77
  -6 -12 -11    9.32   10.87
   3 -13 -11   54.08   30.59
  -3 -13  11   40.55    8.62
   3 -13 -11   52.27   14.67
   3 -13 -11   28.48    9.91
   3 -13 -11   -9.24   17.83
  -3  13  11   39.74    4.69
  -3  13  11   37.97    4.66
  -1 -13  11    0.54    6.74
   1 -13 -11    6.38   11.76
   1 -13 -11   20.61    8.18
   1 -13 -11   -4.34   14.96
   1 -13 -11   -1.29   16.03
  -1  13  11    3.61    3.03
  -1  13  11    5.11    2.47
  -1  13  11    5.56    2.73
  -1 -13 -11   44.97   14.28
  -1 -13 -11   62.46   11.17
   1 -13  11   52.67    9.57
  -1 -13 -11   17.99   16.30
  -1 -13 -11   44.66   17.51
   1  13  11   51.46    5.85
   1  13  11   52.02    5.49
   1  13  11   51.99    6.18
 -14   0  12   21.67    3.08
  14   0 -12   25.71    7.89
  14   0 -12   19.16    5.35
  14   0 -12   22.75    9.77
  12   0 -12  156.21   17.21
 -12   0  12  145.83   12.05
  12   0 -12  159.60   19.72
  12   0 -12  184.12   14.51
  10   0 -12  211.55   20.31
 -10   0  12  196.21   15.60
 -10   0  12  209.26   17.81
  10   0 -12  219.96   22.59
  10   0 -12  222.09   17.47
   8   0 -12   23.07    8.39
  -8   0  12   25.05    3.49
  -8   0  12   25.33    3.33
   8   0 -12   12.07    6.83
  -8   0  12   17.57    4.91
   8   0 -12   30.93    5.31
  -6   0  12   67.79    5.42
   6   0 -12   77.77   13.12
   6   0 -12   66.37    8.32
  -6   0  12   84.56    8.70
   6   0 -12   59.71   10.05
  -6   0  12   79.38    6.41
  -6   0  12   62.13    6.53
   6   0 -12   82.97   15.34
   4   0 -12  106.07   10.42
  -4   0  12  101.61   10.32
  -4   0  12  103.07    9.09
   4   0 -12  114.31   12.96
   4   0 -12   99.10   14.83
   4   0 -12  127.35   18.38
  -4   0  12  113.01    8.01
   2   0 -12  158.74   12.66
  -2   0  12  143.95   13.03
   2   0 -12  154.47   20.42
   2   0 -12  148.04   20.42
   2   0 -12  134.97   15.08
  -2   0  12  173.43   11.10
   2   0 -12  126.93   16.96
  -2   0  12  142.31   12.12
   0   0 -12   69.25   15.70
   0   0 -12   93.16   12.03
   0   0 -12  119.00   17.91
   0   0  12   86.93    9.19
   0   0 -12   85.29   13.76
   0   0  12   95.74    6.93
  -2   0 -12   15.44   10.57
  -2   0 -12   12.21   10.75
   2   0  12    7.88    3.62
  -2   0 -12    2.67    5.30
  -2   0 -12   11.77    7.18
   2   0  12    7.10    1.28
   4   0  12  217.67   15.33
  -4   0 -12  171.08   20.79
  -4   0 -12  222.59   25.25
   4   0  12  222.75   17.20
  -4   0 -12  229.16   25.42
  -4   0 -12  210.29   19.46
  -6   0 -12   96.81   18.07
  -6   0 -12  130.54   18.91
   6   0  12  136.93   11.35
   6   0  12  123.54    9.87
  -6   0 -12   94.71   15.63
  -6   0 -12  102.10   13.48
  -8   0 -12   33.65   14.20
  -8   0 -12   36.30    8.56
   8   0  12   66.88    5.15
   8   0  12   74.09    8.43
  -8   0 -12   51.02   10.97
  -8   0 -12   45.00   14.69
  10   0  12   10.19    2.13
  10   0  12    9.94    5.34
 -10   0 -12    9.88    7.08
 -10   0 -12   17.29   13.07
 -10   0 -12   -6.30   12.49
 -10   0 -12   17.27    9.07
  12   0  12   86.11    7.17
 -12   0 -12  103.22   21.18
 -12   0 -12   75.70   14.95
 -12   0 -12   71.05   11.72
  12   0  12   95.60   12.13
 -12   0 -12   89.14   20.13
  15  -1 -12  109.87   17.37
  15  -1 -12   97.20   14.20
 -15   1  12   91.54    8.42
  15   1 -12  110.37   14.18
  15   1 -12  111.34   10.98
  15   1 -12  113.05   15.97
 -13  -1  12   48.35    5.01
  13  -1 -12   40.23    9.27
  13  -1 -12   56.42    7.91
  13  -1 -12   44.33   12.31
  13   1 -12   65.29    8.14
  13   1 -12   61.37   11.70
 -13   1  12   50.89    5.19
  13   1 -12   47.13    8.95
 -11  -1  12   17.39    5.07
 -11  -1  12   27.55    4.55
  11  -1 -12   17.04    7.85
  11  -1 -12   17.71    8.65
  11  -1 -12   31.07    6.01
 -11  -1  12   27.37    3.25
  11   1 -12    9.33    8.48
 -11   1  12   29.95    3.51
  11   1 -12   23.84    7.69
  11   1 -12   26.01    4.98
   9  -1 -12   46.30   11.98
  -9  -1  12   53.87    5.31
   9  -1 -12   46.40    9.24
  -9  -1  12   52.31    6.02
   9  -1 -12   49.96    7.11
  -9  -1  12   53.78    7.52
  -9   1  12   50.60    5.12
   9   1 -12   55.40   11.44
   9   1 -12   40.16    8.42
  -9   1  12   50.00    6.87
   9   1 -12   60.50    7.27
   7  -1 -12  354.73   25.05
  -7  -1  12  337.82   25.11
  -7  -1  12  331.65   23.47
   7  -1 -12  295.51   27.18
  -7  -1  12  319.98   23.51
   7  -1 -12  308.46   29.75
  -7   1  12  341.42   22.84
  -7   1  12  315.22   24.80
   7   1 -12  276.85   26.43
  -7   1  12  323.14   23.52
   7   1 -12  283.60   24.32
   7   1 -12  325.40   29.42
  -5  -1  12   88.50    9.82
   5  -1 -12   94.98   14.63
   5  -1 -12   94.89   12.39
   5  -1 -12   92.37    9.88
  -5  -1  12   90.90    8.24
  -5  -1  12   97.66    6.98
  -5   1  12   98.66    7.16
   5   1 -12   64.30   15.31
  -5   1  12   79.20    9.43
   5   1 -12  114.99    9.31
  -5   1  12   91.80    8.13
  -5   1  12   95.36    7.58
   5   1 -12  106.47   14.63
   5   1 -12   92.20   11.83
   3  -1 -12   -1.86    9.41
   3  -1 -12   -3.19    8.64
   3  -1 -12    3.78    5.10
  -3  -1  12    0.73    2.15
   3  -1 -12   -1.63    5.58
  -3  -1  12    1.89    3.37
  -3  -1  12    0.68    0.77
  -3   1  12    1.25    0.88
   3   1 -12    0.84   10.01
   3   1 -12    1.30    4.93
   3   1 -12    3.83    6.62
  -3   1  12    0.35    1.85
   3   1 -12   -0.15    2.41
  -3   1  12   -3.64    2.81
  -1  -1  12   56.04    4.20
   1  -1 -12   73.53    9.88
   1  -1 -12   45.05   12.99
   1  -1 -12   33.06    9.12
  -1  -1  12   50.98    6.63
   1  -1 -12   45.23   12.11
   1   1 -12   66.57    6.29
  -1   1  12   48.24    5.57
   1   1 -12   49.54    8.66
   1   1 -12   52.91   13.06
  -1   1  12   51.64    6.85
   1   1 -12   36.24   10.21
  -1   1  12   55.43    4.30
   1   1 -12   51.72   12.21
  -1  -1 -12  150.91   15.02
   1  -1  12  139.93   12.49
  -1  -1 -12  146.63   20.29
   1  -1  12  144.98   10.41
  -1  -1 -12  162.97   21.77
   1   1  12  139.66   10.51
  -1   1 -12  174.35   15.51
  -1   1 -12  141.66   19.27
  -1   1 -12  102.06   18.26
  -1   1 -12  127.36   16.54
   1   1  12  145.72   12.44
  -3  -1 -12  107.87   19.35
   3  -1  12  153.34   10.85
  -3  -1 -12  139.54   20.10
   3  -1  12  137.66   12.87
  -3  -1 -12  146.51   15.14
   3   1  12  147.62   10.93
  -3   1 -12  132.32   16.91
  -3   1 -12  160.97   21.31
  -3   1 -12  189.12   16.34
  -3   1 -12  156.42   21.67
   3   1  12  150.87   12.80
  -5  -1 -12    5.46   11.27
   5  -1  12   22.28    2.42
  -5  -1 -12   21.13   11.82
   5  -1  12   23.86    4.50
  -5  -1 -12    9.43    7.74
  -5  -1 -12   23.21    6.56
  -5   1 -12   17.61   11.59
  -5   1 -12   14.22    7.54
  -5   1 -12   25.56    6.93
   5   1  12   27.54    3.04
  -5   1 -12   19.63   10.58
   5   1  12   27.01    4.68
  -7  -1 -12   24.69    8.77
  -7  -1 -12   39.91    8.16
  -7  -1 -12   36.21   14.04
   7  -1  12   26.93    5.31
  -7  -1 -12   34.21   13.51
   7  -1  12   29.33    3.42
  -7   1 -12   41.54   13.68
   7   1  12   27.74    3.29
  -7   1 -12   25.21    8.88
   7   1  12   40.75    5.62
  -7   1 -12   29.63    7.94
  -7   1 -12   23.35   12.57
  -9  -1 -12  213.23   26.25
  -9  -1 -12  157.97   18.22
   9  -1  12  194.13   16.13
   9  -1  12  185.18   13.51
  -9  -1 -12  130.22   19.74
  -9  -1 -12  144.75   23.74
  -9   1 -12  201.86   25.88
  -9   1 -12  211.09   18.59
  -9   1 -12  168.75   20.05
  -9   1 -12  191.26   25.47
   9   1  12  183.05   13.57
   9   1  12  197.66   15.82
 -11  -1 -12  121.26   22.11
  11  -1  12  125.58   12.96
 -11  -1 -12  117.19   15.83
 -11  -1 -12  106.36   16.63
 -11  -1 -12  122.65   22.71
  11  -1  12  114.13    9.28
 -11   1 -12  123.91   15.68
 -11   1 -12  106.66   16.22
  11   1  12  128.09   12.98
  11   1  12  128.75    9.50
 -11   1 -12  103.78   19.71
 -11   1 -12  100.65   20.55
 -13  -1 -12    6.67   11.41
 -13  -1 -12   11.48    9.35
  13  -1  12   -1.54    1.80
 -13  -1 -12   -5.98   14.25
 -13  -1 -12  -10.29   13.99
 -13   1 -12    1.22   15.90
  13   1  12    5.33    2.15
  13   1  12   -6.79    6.41
 -13   1 -12    7.20   15.00
  14  -2 -12   18.07    9.74
  14  -2 -12   19.43    8.61
  14  -2 -12   13.68    5.88
  14   2 -12   16.85    6.78
 -14   2  12   21.05    3.03
  14   2 -12   12.77    4.79
  14   2 -12   29.26    9.01
 -12  -2  12   91.64   10.66
  12  -2 -12   55.04   13.48
 -12  -2  12   79.22    6.68
  12  -2 -12   75.94   11.87
 -12  -2  12   74.10    9.21
  12  -2 -12   72.75    9.46
 -12   2  12   80.87    6.93
  12   2 -12   66.16   10.52
  12   2 -12   86.08    8.90
  12   2 -12   82.17   13.72
  10  -2 -12   45.70    6.99
  10  -2 -12   64.58   10.79
  10  -2 -12   53.08   12.47
 -10  -2  12   53.45    7.64
 -10  -2  12   43.55    5.81
 -10  -2  12   50.64    4.96
  10   2 -12   60.15    9.78
  10   2 -12   48.33   10.82
 -10   2  12   50.26    5.13
   8  -2 -12    8.78    6.66
  -8  -2  12   11.75    2.84
   8  -2 -12   10.38    8.67
  -8  -2  12    9.34    4.42
  -8  -2  12   13.14    2.61
   8  -2 -12   22.42    4.95
   8   2 -12   13.10    7.21
  -8   2  12   12.56    1.79
   8   2 -12   13.75    6.17
  -8   2  12   19.64    4.59
  -8   2  12    6.27    2.48
   8   2 -12    8.50    3.79
  -6  -2  12    2.25    3.64
   6  -2 -12   -1.23    3.42
  -6  -2  12    1.52    2.02
  -6  -2  12    1.22    2.09
   6  -2 -12    0.52    6.91
   6  -2 -12   -2.07    8.54
   6  -2 -12   -4.77    5.15
   6   2 -12   -0.82    4.60
  -6   2  12    3.56    3.24
  -6   2  12    2.12    2.09
   6   2 -12    5.17    6.14
   6   2 -12   -0.26    4.27
  -6   2  12   -0.34    0.95
   4  -2 -12   87.14    8.47
   4  -2 -12   95.91   15.44
   4  -2 -12   47.73   11.47
  -4  -2  12   63.31    6.61
  -4  -2  12   67.99    8.15
   4   2 -12   71.19   10.47
   4   2 -12   62.34   11.61
  -4   2  12   50.68    6.33
  -4   2  12   61.25    7.84
  -4   2  12   74.18    5.48
   4   2 -12   83.25    7.20
   4   2 -12   75.07   14.22
  -4   2  12   73.68    5.72
  -2  -2  12  146.38    9.81
   2  -2 -12  104.70   16.22
   2  -2 -12  162.23   20.17
  -2  -2  12  151.48   11.22
  -2  -2  12  140.20   12.34
   2  -2 -12  135.46   14.68
   2  -2 -12  147.92   20.13
  -2   2  12  143.94   11.24
   2   2 -12  137.68   11.28
   2   2 -12  122.38   17.94
   2   2 -12  115.23   16.36
  -2   2  12  133.76   10.06
   2   2 -12  112.53   13.77
  -2   2  12  134.62   12.12
   0  -2 -12   86.96   16.55
   0  -2  12   95.48    6.39
   0  -2 -12   66.41   12.86
   0  -2 -12   96.52   16.77
   0  -2  12   68.13    8.78
   0  -2 -12   74.21   11.08
   0   2 -12   90.80   17.04
   0   2 -12   71.49   14.99
   0   2  12   74.04    8.46
   0   2 -12   99.20    8.05
   0   2  12   87.15    6.60
   0   2 -12   89.96   13.71
   0   2 -12  103.89   11.75
   0   2  12   77.23    7.81
  -2  -2 -12   17.30    6.41
  -2  -2 -12   -0.27    9.80
  -2  -2 -12   17.16    7.94
   2  -2  12   21.02    4.40
  -2  -2 -12   24.07   12.81
   2  -2  12   19.95    2.02
  -2   2 -12   18.16   11.19
  -2   2 -12   25.67    8.38
   2   2  12   15.68    3.31
  -2   2 -12   16.81   11.19
  -2   2 -12   18.49    5.96
   2   2  12   22.77    4.16
   2   2  12   18.98    2.24
   4  -2  12  130.92    8.85
  -4  -2 -12   86.93   18.15
  -4  -2 -12   97.47   18.44
  -4  -2 -12  113.37   13.59
   4  -2  12  134.68   11.45
  -4  -2 -12   96.64   15.39
  -4   2 -12  123.64   18.79
  -4   2 -12  121.44   15.37
  -4   2 -12   93.75   17.29
  -4   2 -12  105.96   13.12
   4   2  12  131.08   10.99
  -6  -2 -12   40.53    8.85
  -6  -2 -12   40.00   10.84
  -6  -2 -12   45.44   14.25
  -6  -2 -12   48.21   14.41
   6  -2  12   69.32    8.09
   6  -2  12   59.09    4.58
  -6   2 -12   47.95   13.29
  -6   2 -12   48.72   14.07
   6   2  12   57.66    7.57
   6   2  12   57.59    4.86
  -6   2 -12   63.47    9.23
  -6   2 -12   47.19   10.30
  -8  -2 -12    3.27   11.46
  -8  -2 -12    4.84    6.16
   8  -2  12    8.52    4.39
  -8  -2 -12   -1.09   10.93
  -8  -2 -12   -1.34    7.30
   8  -2  12    5.07    1.67
   8   2  12    8.57    4.22
  -8   2 -12    7.29   12.05
   8   2  12    3.50    1.56
  -8   2 -12   15.52   12.76
  -8   2 -12    3.83    6.30
  -8   2 -12    1.09    7.25
 -10  -2 -12   18.30    7.27
 -10  -2 -12   -6.15   12.75
  10  -2  12    1.36    1.60
 -10  -2 -12    3.21   13.01
 -10  -2 -12   -1.24    8.75
  10  -2  12   13.34    5.36
 -10   2 -12   11.07    7.06
 -10   2 -12   -7.53   13.47
  10   2  12   -3.49    4.77
 -10   2 -12   15.46   13.99
  10   2  12    3.16    1.76
 -10   2 -12    3.25    8.56
 -12  -2 -12   13.74   15.18
  12  -2  12    5.04    1.98
 -12  -2 -12   11.68   14.36
 -12  -2 -12    0.32    9.84
 -12  -2 -12    8.25    8.42
  12   2  12   15.72    8.65
 -12   2 -12   16.48   14.83
 -12   2 -12   36.34   17.03
  15  -3 -12   13.36    9.96
 -15  -3  12    9.91    6.79
  15  -3 -12   27.73    9.16
  15  -3 -12    4.61    5.03
 -15   3  12   11.28    2.74
  15   3 -12    4.24    7.85
  15   3 -12    9.30    4.51
  15   3 -12    9.38    6.74
 -13  -3  12   28.76    6.48
  13  -3 -12   56.15   10.52
  13  -3 -12   36.72    7.17
  13  -3 -12   27.39   11.37
 -13  -3  12   38.60    7.16
  13   3 -12   36.36    7.83
 -13   3  12   34.62    4.29
  13   3 -12   30.37    9.28
  13   3 -12   37.47    5.62
  11  -3 -12    3.39    7.06
  11  -3 -12    4.15    4.34
 -11  -3  12    0.47    4.10
  11  -3 -12   -1.06    8.93
 -11  -3  12    4.23    2.08
  11   3 -12    2.72    5.39
 -11   3  12   -2.55    1.80
  11   3 -12   -4.30    3.13
  11   3 -12    6.41    6.89
  -9  -3  12   11.25    4.79
   9  -3 -12    9.32    7.40
   9  -3 -12   16.40    9.29
   9  -3 -12   14.75    5.05
  -9  -3  12   18.97    3.11
  -9   3  12   14.76    2.68
   9   3 -12   10.86    5.78
   9   3 -12   18.87    4.11
   9   3 -12    9.96    6.56
  -7  -3  12   51.63    5.89
   7  -3 -12   54.78   12.76
   7  -3 -12   46.72    6.77
   7  -3 -12   26.15    8.18
  -7  -3  12   50.72    5.49
  -7  -3  12   53.42    7.06
   7  -3 -12   26.59   10.72
   7   3 -12   47.91    6.00
   7   3 -12   49.48    9.64
  -7   3  12   46.06    4.36
   7   3 -12   56.67    8.99
  -7   3  12   56.26    6.97
  -7   3  12   52.18    5.26
   5  -3 -12  122.28   17.92
   5  -3 -12   97.03   10.37
   5  -3 -12   83.59   12.87
   5  -3 -12   61.43   12.87
   5  -3 -12  114.74   16.60
  -5  -3  12  103.52   10.30
   5   3 -12  112.97   14.44
  -5   3  12  108.85    8.68
  -5   3  12   95.75    7.58
  -5   3  12   87.88    9.67
   5   3 -12   89.00   11.83
   5   3 -12  127.70    9.19
  -3  -3  12    3.67    2.38
   3  -3 -12   -2.35    9.75
   3  -3 -12    9.74    7.09
   3  -3 -12    5.87    5.62
  -3  -3  12    9.33    3.76
   3  -3 -12   -5.12    9.13
  -3   3  12    0.02    3.09
  -3   3  12    4.67    1.14
   3   3 -12    1.35    5.50
   3   3 -12    6.97    2.62
   3   3 -12    2.39    6.02
   3   3 -12   -1.65    8.15
  -3   3  12    5.39    2.42
   1  -3 -12   78.22   15.21
   1  -3 -12   61.02   12.71
   1  -3 -12   90.74   11.49
   1  -3 -12   88.53   16.06
  -1  -3  12   86.20    8.88
  -1   3  12   72.03    7.41
  -1   3  12   74.00    6.17
   1   3 -12   97.27    7.65
  -1   3  12   84.00    8.41
   1   3 -12   86.09   11.02
   1   3 -12   67.14   14.80
   1   3 -12   73.00   12.41
  -1  -3 -12   32.73   12.83
  -1  -3 -12   53.56   14.08
  -1  -3 -12   33.05    9.35
   1  -3  12   42.37    3.34
   1  -3  12   46.11    6.24
  -1  -3 -12   29.96    7.03
  -1   3 -12   44.85   13.39
   1   3  12   44.32    3.71
   1   3  12   40.92    5.51
  -1   3 -12   49.41    5.46
  -1   3 -12   42.55   13.47
  -1   3 -12   48.19    8.56
  -1   3 -12   37.64    9.30
   1   3  12   38.94    5.08
   3  -3  12   39.57    3.17
  -3  -3 -12   35.06    8.05
  -3  -3 -12   15.63   11.62
   3  -3  12   42.32    5.92
  -3  -3 -12   18.27    8.76
  -3  -3 -12   16.25   10.92
   3   3  12   43.33    3.69
  -3   3 -12   36.70    7.63
  -3   3 -12   38.23   12.05
  -3   3 -12   21.76    8.20
   3   3  12   41.49    5.48
   3   3  12   40.47    5.02
  -3   3 -12   44.21   12.62
  -5  -3 -12   17.73    8.22
  -5  -3 -12   14.68    6.53
   5  -3  12   24.63    2.50
  -5  -3 -12   18.68   10.91
  -5  -3 -12   35.29   12.44
   5  -3  12   23.15    5.27
   5   3  12   28.26    4.60
  -5   3 -12   19.18   10.56
   5   3  12   24.83    2.87
  -5   3 -12   29.46    8.62
  -5   3 -12   22.08   10.57
  -7  -3 -12   17.13    9.00
  -7  -3 -12   23.94   13.35
  -7  -3 -12    2.62   11.99
   7  -3  12   20.63    2.50
   7  -3  12   21.55    5.52
  -7  -3 -12   13.81    6.24
  -7   3 -12    7.63   10.94
  -7   3 -12    4.41   10.80
   7   3  12   25.84    2.99
   7   3  12   24.99    4.89
  -7   3 -12   20.27    6.85
  -7   3 -12   18.17    8.46
  -9  -3 -12   41.49   11.28
  -9  -3 -12   43.70   15.35
   9  -3  12   63.76    5.18
   9  -3  12   64.96    8.52
  -9  -3 -12   71.19   10.56
  -9  -3 -12   47.44   14.60
   9   3  12   53.56    5.38
  -9   3 -12   60.54   17.19
  -9   3 -12   57.65    8.52
  -9   3 -12   28.85   14.95
  -9   3 -12   69.32   11.90
   9   3  12   73.43    7.91
  11  -3  12   29.99    3.69
 -11  -3 -12   22.57   14.63
 -11  -3 -12   21.44   10.84
  11  -3  12   43.80   10.77
 -11  -3 -12   21.11    8.20
 -11  -3 -12   35.82    9.34
 -11  -3 -12    9.08   14.12
 -11   3 -12   23.83   14.50
 -11   3 -12   34.37   15.63
  11   3  12   34.04    3.90
 -13  -3 -12   11.27   16.89
  13  -3  12   11.07    7.09
 -13  -3 -12   21.75   12.29
 -13  -3 -12    8.98    7.87
 -13  -3 -12   22.25   16.96
 -13  -3 -12   26.40   10.29
  13  -3  12    7.19    2.36
 -13   3 -12   11.54   15.20
  13   3  12   14.22    2.82
 -13   3 -12   -0.94   16.21
  14  -4 -12    2.26    8.37
 -14  -4  12   -1.35    6.08
  14  -4 -12    4.67    5.34
  14  -4 -12    9.27   10.53
 -14   4  12    0.55    2.25
  14   4 -12   -1.33    7.37
  14   4 -12    5.25    5.83
  14   4 -12    4.15    3.99
 -12  -4  12   48.74    7.93
  12  -4 -12   57.78    8.37
  12  -4 -12   82.71   12.49
  12  -4 -12   41.91   13.16
 -12  -4  12   46.72    7.10
  12   4 -12   48.89    6.19
  12   4 -12   42.55    8.29
 -12   4  12   43.77    5.14
  12   4 -12   58.19   10.63
  10  -4 -12    7.47    7.37
  10  -4 -12    0.04    4.75
 -10  -4  12    4.08    3.70
 -10  -4  12    8.22    5.09
 -10  -4  12    2.31    1.68
  10  -4 -12   -6.16    8.75
  10   4 -12    9.63    3.55
 -10   4  12    3.44    1.99
  10   4 -12    3.43    6.29
  10   4 -12    4.90    5.16
  -8  -4  12    0.97    3.11
  -8  -4  12    4.89    1.94
   8  -4 -12    6.55    3.95
  -8  -4  12    3.80    3.70
   8  -4 -12   10.62    9.52
   8  -4 -12   11.29    6.55
   8   4 -12    7.35    6.25
  -8   4  12    3.83    1.61
   8   4 -12    6.62    3.31
   8   4 -12    1.55    4.57
  -8   4  12    2.63    1.97
  -6  -4  12   -1.71    1.86
   6  -4 -12    8.57    3.95
   6  -4 -12  -11.86   10.18
  -6  -4  12   -4.00    3.58
   6  -4 -12    2.84    7.56
   6  -4 -12   -2.64    8.52
   6  -4 -12    8.68    6.11
   6   4 -12    5.17    4.92
  -6   4  12    3.24    1.46
   6   4 -12    4.53    6.55
  -6   4  12    3.31    2.21
   6   4 -12    2.08    2.56
  -6   4  12    4.18    3.28
   4  -4 -12    9.48    7.23
   4  -4 -12    5.89    3.72
  -4  -4  12    2.00    3.28
   4  -4 -12   -1.93    5.42
   4  -4 -12   10.61    9.76
  -4  -4  12    7.31    4.17
   4  -4 -12   12.64   11.04
   4   4 -12    7.38    5.36
   4   4 -12   11.16    2.90
   4   4 -12    7.90    6.53
  -4   4  12    7.86    3.47
  -4   4  12    7.80    1.63
  -4   4  12   11.79    2.55
   2  -4 -12   41.37   12.15
   2  -4 -12   23.72    8.90
   2  -4 -12   26.13    6.94
   2  -4 -12   44.34   13.09
  -2  -4  12   34.26    5.72
  -2   4  12   38.57    5.22
   2   4 -12   26.28    6.88
  -2   4  12   32.96    3.63
   2   4 -12   45.71    9.82
   2   4 -12   49.71   13.97
  -2   4  12   50.59    4.90
   2   4 -12   50.51    5.01
   0  -4 -12    6.38    7.11
   0  -4 -12    8.11   10.91
   0  -4  12   -3.02    3.04
   0  -4 -12   -5.04    9.62
   0  -4 -12    6.92    5.33
   0   4 -12    0.86    2.36
   0   4  12    1.20    2.05
   0   4 -12   -2.70    4.92
   0   4 -12    2.67    5.87
   0   4 -12    8.91   10.17
   0   4  12   -0.72    2.76
   0   4  12    0.11    1.14
  -2  -4 -12   -2.62    4.93
  -2  -4 -12   -0.67    6.71
   2  -4  12    1.50    3.52
  -2  -4 -12   11.38   11.18
  -2  -4 -12   14.78   11.04
  -2   4 -12  -10.00    8.24
   2   4  12    1.13    1.24
  -2   4 -12    1.37    5.29
   2   4  12    2.92    3.15
  -2   4 -12   -4.97    8.19
  -2   4 -12    1.38    2.50
  -2   4 -12   -1.84    5.84
   2   4  12    0.26    2.15
  -4  -4 -12   15.40   11.64
  -4  -4 -12   20.89   12.21
  -4  -4 -12    8.96    5.85
  -4  -4 -12    8.77    7.15
   4  -4  12   14.36    4.47
   4  -4  12   13.51    1.52
  -4   4 -12   16.85   10.42
  -4   4 -12   23.11   11.86
   4   4  12   13.19    3.33
   4   4  12   14.28    3.82
   4   4  12   13.09    2.04
  -4   4 -12   12.39    7.15
  -6  -4 -12   38.45   14.06
  -6  -4 -12    8.12    7.71
   6  -4  12   30.77    5.89
   6  -4  12   26.42    2.76
  -6  -4 -12   31.59    7.63
  -6  -4 -12   37.91   14.36
   6   4  12   33.28    3.37
  -6   4 -12   32.49    8.65
  -6   4 -12   25.00   11.45
   6   4  12   22.49    4.33
  -6   4 -12    9.66   12.24
  -6   4 -12   42.11    7.12
   6   4  12   27.97    4.85
  -8  -4 -12    7.91   11.63
   8  -4  12    0.68    4.33
  -8  -4 -12   -2.00    8.20
  -8  -4 -12    5.28    5.89
  -8  -4 -12    2.56   11.23
   8  -4  12   -0.84    1.28
  -8   4 -12    7.48   12.04
   8   4  12   10.00    4.24
   8   4  12    3.28    1.61
   8   4  12    5.26    1.70
  -8   4 -12   -8.60   11.96
  -8   4 -12    3.21    5.15
  10  -4  12  -10.02    7.18
 -10  -4 -12   -0.49   12.62
 -10  -4 -12   -0.14   11.67
 -10  -4 -12    7.94    7.23
  10  -4  12    3.26    1.69
 -10  -4 -12   -0.68    6.23
 -10  -4 -12    3.37    9.24
 -10   4 -12   -6.85   12.43
 -10   4 -12    1.35   10.21
  10   4  12   -0.58    2.45
 -10   4 -12   15.37   13.03
  10   4  12    1.33    1.73
  12  -4  12   -2.99    1.87
 -12  -4 -12   -4.08   13.91
 -12  -4 -12   -0.26   10.12
 -12  -4 -12    2.29   14.69
 -12  -4 -12  -15.34    7.87
 -12  -4 -12  -10.32    6.89
  12  -4  12    5.07    6.22
 -12   4 -12  -11.22   13.86
  12   4  12    1.54    1.93
 -12   4 -12   14.65   15.19
  13  -5 -12    4.62   10.45
 -13  -5  12    6.55    5.50
  13  -5 -12    9.85    8.57
 -13  -5  12    4.05    5.24
  13  -5 -12    7.41    5.41
  13   5 -12    0.97    5.74
 -13   5  12    6.15    2.44
  13   5 -12    9.62    7.38
  13   5 -12    2.25    3.83
  11  -5 -12   11.99   10.28
 -11  -5  12    1.60    4.00
  11  -5 -12    1.73    7.80
  11  -5 -12    4.35    4.64
 -11  -5  12    6.76    5.43
 -11   5  12    4.14    2.18
  11   5 -12    2.22    3.26
  11   5 -12   -0.70    4.71
  11   5 -12   13.84    6.61
   9  -5 -12    2.09    6.73
   9  -5 -12    9.89    4.95
  -9  -5  12    1.62    3.47
   9  -5 -12   -6.42    8.82
  -9  -5  12    6.12    1.93
  -9  -5  12    0.89    4.52
   9   5 -12    5.59    4.95
  -9   5  12   -0.25    1.59
   9   5 -12    8.89    3.16
  -9   5  12    2.08    2.06
   9   5 -12   -1.36    5.48
  -7  -5  12    8.44    4.72
   7  -5 -12    2.95    6.24
  -7  -5  12    9.11    3.33
  -7  -5  12    8.26    2.09
   7  -5 -12    5.60    4.46
   7  -5 -12    7.19    8.17
   7  -5 -12   11.79    9.53
  -7   5  12    5.65    1.72
   7   5 -12   10.71    5.13
   7   5 -12    4.74    2.62
   7   5 -12    3.62    6.35
  -7   5  12    7.52    2.33
   5  -5 -12   -5.79    9.54
   5  -5 -12    0.32    6.37
   5  -5 -12    3.26    3.72
   5  -5 -12    1.88   10.58
   5  -5 -12    3.84    7.41
  -5  -5  12   -3.74    3.58
  -5  -5  12   -3.24    1.85
  -5   5  12    2.70    1.32
   5   5 -12    2.81    2.19
   5   5 -12   -1.18    6.10
   5   5 -12   -0.09    4.67
  -5   5  12    1.43    2.14
   3  -5 -12   13.39   10.56
   3  -5 -12    3.39    6.95
   3  -5 -12   10.70   11.49
  -3  -5  12    1.72    3.60
   3  -5 -12   14.09    6.12
   3   5 -12    5.09    5.37
   3   5 -12    9.05    6.38
  -3   5  12    5.84    2.36
  -3   5  12    9.59    3.52
   3   5 -12    6.21    2.38
  -3   5  12    7.25    1.61
   1  -5 -12    3.24   10.36
   1  -5 -12    2.35    5.30
   1  -5 -12   14.24   10.42
  -1  -5  12   -0.41    3.47
   1  -5 -12   -1.13    7.23
   1   5 -12    0.52    2.07
   1   5 -12    3.76    5.71
  -1   5  12    0.31    1.23
  -1   5  12   -0.41    2.19
   1   5 -12   -0.05    4.37
  -1   5  12   -4.60    2.81
   1   5 -12   14.03   10.14
  -1  -5 -12   23.50   11.72
  -1  -5 -12   12.79    7.87
   1  -5  12    5.75    3.73
  -1  -5 -12    6.79   10.15
  -1  -5 -12    4.76    5.12
  -1   5 -12   -2.95    5.87
   1   5  12    3.51    1.40
  -1   5 -12   -3.63    8.75
   1   5  12    7.08    3.28
  -1   5 -12    5.19    1.29
  -1   5 -12    1.55    5.24
   1   5  12    7.30    2.71
   3  -5  12   -1.74    3.54
  -3  -5 -12    2.85    7.37
  -3  -5 -12    3.30   10.08
  -3  -5 -12   -6.14    4.57
  -3  -5 -12   11.32   10.63
   3   5  12    2.54    2.99
   3   5  12    2.81    1.42
   3   5  12   -0.49    2.08
  -3   5 -12    7.55    5.59
  -3   5 -12  -10.27    8.78
  -3   5 -12    6.11    5.99
  -5  -5 -12   13.06    9.02
  -5  -5 -12   14.78   10.39
  -5  -5 -12   14.45    6.73
   5  -5  12   23.84    5.19
  -5  -5 -12   19.47   12.21
  -5   5 -12   30.51   12.65
  -5   5 -12   20.65    7.81
   5   5  12   19.71    4.35
   5   5  12   19.63    2.87
  -5   5 -12   20.48   12.43
   5   5  12   16.62    3.84
  -5   5 -12   23.12    5.89
   5   5  12   20.84    2.70
  -7  -5 -12   10.20    8.23
  -7  -5 -12   13.08   11.06
  -7  -5 -12    2.67    6.11
   7  -5  12    4.90    4.14
   7  -5  12    6.24    1.33
  -7  -5 -12   -6.15   10.75
  -7   5 -12   12.16   11.87
  -7   5 -12   -1.03   11.81
  -7   5 -12   12.20    4.91
   7   5  12    3.80    2.18
   7   5  12    5.02    1.72
   7   5  12    2.02    2.99
  -9  -5 -12    3.02   11.14
  -9  -5 -12   16.50   14.04
   9  -5  12   16.48    2.16
  -9  -5 -12   16.69   10.34
  -9  -5 -12   10.47    7.32
  -9  -5 -12   15.92    7.14
  -9   5 -12    8.26   14.17
   9   5  12   15.79    2.91
  -9   5 -12   17.34    8.03
   9   5  12   13.76    2.51
   9   5  12    8.16    3.74
  -9   5 -12   28.30   12.40
 -11  -5 -12    6.68   13.99
 -11  -5 -12   10.67    7.44
 -11  -5 -12    6.82   14.01
 -11  -5 -12   15.67    8.36
  11  -5  12    7.01    2.08
 -11  -5 -12    9.39   10.25
  11  -5  12   10.20    6.33
 -11   5 -12    2.26   15.00
 -11   5 -12   27.74   14.64
  11   5  12    9.75    2.37
  11   5  12   10.03    4.18
  12  -6 -12    7.10   11.11
  12  -6 -12    5.33    5.33
 -12  -6  12    0.38    4.80
 -12  -6  12    3.15    5.53
  12  -6 -12   -4.04    9.11
  12   6 -12    2.37    3.41
  12   6 -12   -0.37    5.23
 -12   6  12    3.21    2.18
  12   6 -12   -1.81    5.96
  10  -6 -12   21.67    9.19
 -10  -6  12   21.63    6.02
  10  -6 -12    8.98   10.79
  10  -6 -12    8.22    5.38
 -10  -6  12   15.37    4.40
  10   6 -12    8.18    6.06
  10   6 -12   13.80    3.59
  10   6 -12   17.15    6.28
 -10   6  12   21.42    3.04
 -10   6  12   19.41    2.76
   8  -6 -12    4.43    7.08
   8  -6 -12   -7.14    9.36
  -8  -6  12   -1.83    2.01
  -8  -6  12   -0.01    3.10
   8  -6 -12    2.07    4.80
  -8  -6  12   14.24    5.13
   8  -6 -12   -0.94    8.11
   8   6 -12    2.11    3.25
   8   6 -12    3.36    5.56
  -8   6  12    6.54    2.32
  -8   6  12    4.12    1.76
   8   6 -12   -2.05    4.58
   6  -6 -12   -2.40    6.09
   6  -6 -12   12.80   11.57
   6  -6 -12    0.67    9.66
   6  -6 -12   -3.09    8.11
   6  -6 -12   -1.83    4.13
  -6  -6  12   -1.07    2.01
  -6  -6  12    7.22    4.24
  -6   6  12   -0.78    1.91
   6   6 -12   -2.76    4.66
   6   6 -12   -3.15    2.05
  -6   6  12    1.10    1.48
   6   6 -12    1.14    5.66
  -4  -6  12   30.49    5.55
   4  -6 -12   15.67    8.75
   4  -6 -12   14.97    7.42
   4  -6 -12   12.80   11.37
   4   6 -12   26.87    8.13
   4   6 -12   20.81    6.07
  -4   6  12   23.94    3.47
  -4   6  12   19.80    2.68
   4   6 -12   18.19    2.78
   2  -6 -12    6.44    5.44
  -2  -6  12    2.25    3.98
   2  -6 -12   -5.65   10.75
   2  -6 -12    4.67   11.17
   2  -6 -12    7.11    8.59
   2   6 -12    8.89    5.39
   2   6 -12    8.52    6.36
  -2   6  12    4.17    1.51
  -2   6  12    3.88    2.22
   0  -6 -12    9.35   10.86
   0  -6 -12    3.86    7.65
   0  -6 -12    0.59    5.21
   0  -6  12    4.14    3.85
   0  -6 -12    9.83    9.96
   0   6 -12    8.08    4.78
   0   6  12    4.59    2.38
   0   6  12    6.74    3.13
   0   6 -12    3.43    1.29
   0   6  12    0.84    1.36
   0   6 -12    2.35    5.79
  -2  -6 -12    8.68   11.20
  -2  -6 -12   15.89    8.89
   2  -6  12    1.43    3.73
  -2  -6 -12    6.18   11.16
  -2  -6 -12    5.98    5.49
  -2   6 -12    7.85    5.91
   2   6  12    8.75    1.81
   2   6  12    7.10    2.94
  -2   6 -12    3.62    5.09
  -2   6 -12    0.42    9.20
   2   6  12    8.02    3.50
  -4  -6 -12  -13.43    6.72
  -4  -6 -12  -11.83   10.55
  -4  -6 -12   -0.06    5.49
   4  -6  12    6.62    4.27
  -4  -6 -12    4.20    9.63
  -4   6 -12   10.66    6.18
  -4   6 -12   -8.73    9.75
   4   6  12   -1.10    1.33
   4   6  12   -0.75    1.81
   4   6  12   -2.21    3.14
   4   6  12   -3.05    2.48
   6  -6  12   31.12    6.44
  -6  -6 -12   19.55   13.32
  -6  -6 -12   14.40    9.34
  -6  -6 -12   34.73    7.68
  -6  -6 -12   26.67   11.74
   6   6  12   32.36    3.97
  -6   6 -12   16.02   13.47
   6   6  12   22.63    3.10
  -6   6 -12   44.07    6.17
   6   6  12   24.58    4.34
  -8  -6 -12   22.14    9.35
  -8  -6 -12   -0.20    6.31
   8  -6  12    0.29    7.58
  -8  -6 -12   22.65   13.47
  -8  -6 -12   21.51   13.76
  -8  -6 -12   15.10    7.55
   8   6  12    3.40    3.30
  -8   6 -12   21.63   13.67
   8   6  12   10.13    2.62
   8   6  12    6.98    1.98
  -8   6 -12    8.78    5.55
 -10  -6 -12    2.64    8.97
  10  -6  12   -0.35    1.64
 -10  -6 -12    2.60    6.56
 -10  -6 -12   -6.98   13.85
  10  -6  12    3.15    6.02
 -10  -6 -12   -5.06   12.81
 -10  -6 -12    3.14    7.70
  10   6  12    2.23    2.45
 -10   6 -12   -2.04   12.52
  10   6  12   -2.23    1.90
 -10   6 -12   -4.35   13.73
  10   6  12    1.67    3.69
 -11  -7  12   -0.28    4.36
  11  -7 -12    5.07    9.13
 -11  -7  12    5.16    5.42
  11  -7 -12    8.16    5.08
  11  -7 -12  -11.44   10.62
  11   7 -12    0.45    2.99
  11   7 -12    1.22    4.72
 -11   7  12    1.70    2.21
  -9  -7  12   35.19    6.75
   9  -7 -12   34.17   12.88
  -9  -7  12   40.62    5.98
   9  -7 -12   26.18    9.22
   9  -7 -12   36.54    6.71
   9   7 -12   41.37    9.09
  -9   7  12   37.96    4.23
   9   7 -12   54.24    8.21
  -9   7  12   30.63    4.16
   9   7 -12   40.35    4.59
   7  -7 -12   13.35    4.96
   7  -7 -12   28.78   10.97
   7  -7 -12    3.31    9.05
  -7  -7  12   17.11    4.10
  -7  -7  12   13.24    2.63
  -7  -7  12   10.21    4.72
   7  -7 -12   21.33    8.26
   7  -7 -12   26.27   11.27
   7   7 -12   10.03    2.52
  -7   7  12   18.60    2.91
   7   7 -12   23.95    7.37
   7   7 -12   12.48    5.00
  -7   7  12   13.05    2.31
   5  -7 -12   12.00    8.74
   5  -7 -12    9.52   12.53
   5  -7 -12   -5.16    5.77
  -5  -7  12    6.44    4.43
  -5  -7  12   10.00    2.55
   5  -7 -12  -10.79   10.63
   5  -7 -12    8.50    3.95
  -5   7  12    8.49    2.60
   5   7 -12    6.01    4.99
  -5   7  12    4.54    1.79
   5   7 -12   17.43    6.75
   3  -7 -12    2.66    8.38
  -3  -7  12    5.25    4.35
   3  -7 -12   -1.60   11.27
   3  -7 -12    0.14   12.04
   3  -7 -12    1.46    6.20
  -3   7  12    4.52    1.66
   3   7 -12    6.11    1.53
   3   7 -12    4.58    5.30
  -3   7  12    4.21    2.12
   3   7 -12    3.37    4.49
   1  -7 -12  -13.84   10.66
   1  -7 -12    7.80    5.74
  -1  -7  12    9.16    4.06
   1  -7 -12   19.01    9.02
   1  -7 -12   26.91   12.72
  -1   7  12    9.57    2.02
   1   7 -12   17.54    6.56
   1   7 -12   14.63    1.81
   1   7 -12    9.21    5.46
  -1   7  12    8.43    2.57
  -1  -7 -12   13.83   11.03
   1  -7  12   11.06    4.70
  -1  -7 -12    9.40   11.69
  -1  -7 -12   11.50    8.17
  -1  -7 -12    0.86    4.68
   1   7  12   11.38    2.91
  -1   7 -12    3.90    5.51
   1   7  12    7.07    1.92
  -1   7 -12   19.40    5.41
   3  -7  12   22.41    5.49
  -3  -7 -12    9.52   12.23
  -3  -7 -12   21.07    6.37
  -3  -7 -12   10.11    8.72
  -3  -7 -12   26.12   11.38
   3   7  12   18.56    3.10
   3   7  12   29.41    4.18
  -3   7 -12   15.80   11.93
   3   7  12   26.30    3.08
  -3   7 -12   30.64    6.10
  -3   7 -12   12.17    6.18
   5  -7  12   23.59    5.63
  -5  -7 -12  -11.09   10.34
  -5  -7 -12   12.19    9.12
  -5  -7 -12    9.36    6.40
  -5  -7 -12   25.38   12.52
  -5   7 -12   19.23    6.27
   5   7  12   18.37    3.80
   5   7  12   20.88    3.00
  -5   7 -12   15.45    4.63
   5   7  12   13.21    2.44
  -5   7 -12   24.00   12.71
  -7  -7 -12    7.24    6.69
  -7  -7 -12   26.01   13.67
  -7  -7 -12   20.28    6.91
  -7  -7 -12   18.39    9.86
  -7  -7 -12   19.15   13.95
   7  -7  12   28.79    6.69
   7   7  12   11.32    2.95
  -7   7 -12   25.16    5.64
   7   7  12   21.51    2.82
   7   7  12   17.09    4.06
  -7   7 -12   25.12   13.41
  -9  -7 -12   18.43    9.93
   9  -7  12   29.89    7.15
  -9  -7 -12   18.71   15.51
  -9  -7 -12   22.80    7.16
  -9  -7 -12   19.97   14.42
  -9  -7 -12   24.58    8.98
   9   7  12   21.91    3.46
  -9   7 -12   26.64   13.31
   9   7  12   22.94    4.66
   9   7  12   21.54    3.15
 -11  -7 -12    5.10   14.41
 -11  -7 -12    9.44    7.72
 -11  -7 -12    3.99   10.41
 -11  -7 -12  -10.22   13.22
  11  -7  12   32.13    7.79
 -11  -7 -12   -1.28    8.79
  11   7  12    9.75    3.07
 -11   7 -12   -6.83   14.85
  11   7  12    8.42    2.41
  11   7  12    3.92    4.32
  12  -8 -12   83.98   11.35
  10  -8 -12   86.57   11.09
 -10  -8  12   86.48   11.02
  10  -8 -12   84.91   14.00
  10  -8 -12   95.52   18.04
 -10  -8  12  101.97   10.26
 -10   8  12   86.09    7.60
  10   8 -12   80.89    7.89
  10   8 -12   85.71   11.31
  10   8 -12  100.91    8.09
 -10   8  12   82.16    7.86
   8  -8 -12   17.21    8.88
  -8  -8  12   29.53    6.62
  -8  -8  12   22.24    4.78
   8  -8 -12   21.52    5.68
   8  -8 -12   12.56   10.31
   8   8 -12   31.64    8.10
   8   8 -12   17.50    5.99
   8   8 -12   31.58    3.48
  -8   8  12   15.98    2.82
  -8   8  12   24.31    3.33
   6  -8 -12   25.80   10.03
   6  -8 -12   10.18    5.02
   6  -8 -12   18.68   11.63
  -6  -8  12    7.31    5.08
   6  -8 -12   19.34   13.01
   6  -8 -12    8.84    7.06
  -6  -8  12   11.30    2.72
  -6   8  12    9.52    2.64
   6   8 -12   10.15    6.64
   6   8 -12   18.97    5.70
  -6   8  12   11.60    2.20
   6   8 -12   18.00    2.59
  -4  -8  12  147.08   13.22
   4  -8 -12   99.52   18.45
   4  -8 -12  124.81   20.50
   4  -8 -12  137.33   16.02
   4  -8 -12  122.46   19.13
   4   8 -12  127.64   10.11
  -4   8  12  119.27   10.18
   4   8 -12  168.97   15.28
  -4   8  12  137.92   10.80
   2  -8 -12   25.99    9.93
   2  -8 -12   45.66    9.78
   2  -8 -12   33.43   14.05
  -2  -8  12   29.74    6.56
   2  -8 -12   65.34   16.22
   2   8 -12   54.78    9.03
  -2   8  12   38.43    4.95
   2   8 -12   47.35    3.93
   2   8 -12   40.25    7.21
  -2   8  12   39.70    4.17
   0  -8 -12   15.69   12.58
   0  -8 -12    2.23    8.42
   0  -8 -12   12.20    5.92
   0  -8  12   10.60    5.01
   0  -8 -12   10.45   12.06
   0   8  12    9.58    2.05
   0   8  12   11.10    2.78
   0   8 -12    9.72    4.96
   0   8 -12    5.78    5.13
  -2  -8 -12   -7.16   10.29
  -2  -8 -12    7.05    5.93
  -2  -8 -12    8.42   12.55
   2  -8  12    0.00    4.47
  -2  -8 -12   -3.26    7.63
   2   8  12    2.29    2.41
  -2   8 -12   -0.69    4.15
   2   8  12    0.75    1.53
  -2   8 -12    3.01    5.06
   2   8  12    4.14    2.22
  -4  -8 -12   15.17   12.42
  -4  -8 -12   13.63    9.31
  -4  -8 -12   19.96    7.08
  -4  -8 -12   38.57   13.74
   4   8  12   27.14    3.30
   4   8  12   25.64    3.64
   4   8  12   27.02    4.23
  -4   8 -12   32.18    6.52
  -6  -8 -12  101.86   12.06
  -6  -8 -12   77.04   18.52
  -6  -8 -12   98.91   17.07
  -6  -8 -12  121.59   14.92
  -6  -8 -12   75.15   17.57
   6  -8  12  117.78   13.19
   6   8  12  130.18   10.59
   6   8  12  117.60    9.36
  -6   8 -12  145.96   12.02
   6   8  12  114.80    9.70
  -8  -8 -12   73.82   11.07
   8  -8  12   63.12    9.79
  -8  -8 -12   43.73   15.99
  -8  -8 -12   47.36   13.24
  -8  -8 -12   93.28   19.43
  -8  -8 -12   73.43    9.57
   8   8  12   56.55    7.33
   8   8  12   60.08    6.28
  -8   8 -12   59.37   17.44
   8   8  12   56.21    5.70
 -10  -8 -12    7.03    8.87
 -10  -8 -12   16.73   13.46
 -10  -8 -12   -7.58    7.19
  10  -8  12    9.45    7.05
 -10  -8 -12    9.88   14.25
 -10  -8 -12    3.29   10.77
  10   8  12    7.51    2.32
  10   8  12    7.81    2.95
  10   8  12    0.56    4.12
 -10   8 -12  -17.52   13.83
  -9  -9  12   41.79    7.64
  -9  -9  12   34.35    6.17
   9  -9 -12   42.25   10.93
   9  -9 -12   33.05    6.76
   9  -9 -12   37.84   13.60
   9   9 -12   24.37    6.56
  -9   9  12   29.69    4.02
  -9   9  12   31.67    3.87
   9   9 -12   35.91    4.16
  -7  -9  12   91.35    8.97
   7  -9 -12   66.00    9.18
   7  -9 -12   43.54   13.41
   7  -9 -12   62.11   11.94
  -7  -9  12   91.97   11.42
   7   9 -12   60.14    6.29
  -7   9  12   73.52    6.25
   7   9 -12   68.54    9.54
  -7   9  12   70.16    6.63
   5  -9 -12   73.14   16.77
  -5  -9  12   64.75   10.24
   5  -9 -12   80.74   12.72
   5  -9 -12   67.62   15.01
   5  -9 -12  114.97   18.50
  -5  -9  12   84.42    7.60
   5   9 -12   66.77    6.60
  -5   9  12   82.53    7.27
   5   9 -12   98.47   10.59
  -5   9  12   78.67    6.75
  -3  -9  12   22.06    7.36
   3  -9 -12    7.78   14.33
   3  -9 -12   -5.67    8.31
   3  -9 -12   -1.97   12.96
   3  -9 -12   14.91    7.04
   3   9 -12   13.73    6.16
   3   9 -12   14.89    5.25
  -3   9  12   13.02    2.23
  -3   9  12   10.69    2.65
   1  -9 -12   24.73   14.17
   1  -9 -12   43.28   15.24
  -1  -9  12   52.96    9.88
   1  -9 -12   40.47   12.50
   1  -9 -12   51.48    9.92
   1   9 -12   53.48    8.50
  -1   9  12   34.66    4.27
   1   9 -12   42.56    6.91
  -1   9  12   43.82    5.13
  -1  -9 -12  157.23   21.61
  -1  -9 -12  136.54   17.71
  -1  -9 -12  115.41   21.65
  -1  -9 -12  134.92   23.08
  -1   9 -12  187.54   15.92
   1   9  12  191.24   13.87
   1   9  12  190.80   14.23
  -1   9 -12  231.16   17.36
   1   9  12  196.03   14.55
   3  -9  12   64.78    9.20
  -3  -9 -12   47.77   14.42
  -3  -9 -12   55.87   13.28
  -3  -9 -12   57.51   15.88
  -3  -9 -12   67.86   10.89
  -3   9 -12   63.42    8.71
   3   9  12   59.14    6.83
   3   9  12   69.46    6.48
   3   9  12   66.64    5.79
  -5  -9 -12   -2.24    8.06
  -5  -9 -12  -31.97   10.81
  -5  -9 -12    0.47   11.85
   5  -9  12    7.13    5.72
  -5  -9 -12   -6.13    5.75
   5   9  12    1.51    2.97
   5   9  12    2.10    1.88
   5   9  12    1.18    2.36
   7  -9  12   52.03    8.43
  -7  -9 -12   19.94   14.09
  -7  -9 -12   33.60   12.14
  -7  -9 -12   54.35    9.79
  -7  -9 -12   56.02   15.56
   7   9  12   43.37    5.61
   7   9  12   38.33    4.66
   7   9  12   36.21    4.56
  -9  -9 -12   33.45   15.87
  -9  -9 -12   39.70   16.25
  -9  -9 -12   36.37   12.96
  -9  -9 -12   41.32   10.48
  -9  -9 -12   24.60    8.48
   9   9  12   27.30    5.24
   8 -10 -12   82.36   14.13
   8 -10 -12   54.67    8.82
   8 -10 -12   65.82   15.43
  -8 -10  12   73.88    9.11
  -8 -10  12   67.96    9.91
   8  10 -12   76.55    9.91
  -8  10  12   65.50    6.37
  -8  10  12   68.31    6.75
   8  10 -12   71.98    6.59
   6 -10 -12   11.17   15.89
   6 -10 -12    3.45   10.19
  -6 -10  12    2.40    5.72
   6 -10 -12   10.42    8.92
   6 -10 -12   11.03    4.88
  -6  10  12    5.06    2.17
  -6  10  12    4.50    2.23
   6  10 -12    1.86    2.23
   6  10 -12    6.08    5.03
  -4 -10  12   78.72   10.44
   4 -10 -12   84.62   18.30
   4 -10 -12   81.84   13.37
   4 -10 -12   62.17   18.21
   4 -10 -12   53.73   15.95
   4  10 -12   97.56   10.94
  -4  10  12   95.18    7.84
  -4  10  12  102.41    8.38
   4  10 -12  107.55    7.83
   2 -10 -12  137.74   22.68
  -2 -10  12  165.86   15.79
   2 -10 -12  110.49   16.95
   2 -10 -12  186.56   26.10
   2  10 -12  170.17   14.53
  -2  10  12  175.88   12.68
  -2  10  12  146.33   12.04
   0 -10 -12   32.46   12.57
   0 -10 -12   37.96   16.14
   0 -10 -12   36.80   14.60
   0 -10 -12   51.17   10.41
   0 -10  12   58.07    8.85
   0  10  12   51.79    5.11
   0  10 -12   47.67    6.83
   0  10  12   67.03    6.23
  -2 -10 -12   19.87   13.88
  -2 -10 -12   28.84   11.19
  -2 -10 -12   18.89   14.02
   2 -10  12   23.92    6.53
  -2 -10 -12   25.31    7.65
   2  10  12   35.75    4.47
   2  10  12   24.92    3.84
  -2  10 -12   25.17    5.56
   2  10  12   33.12    3.79
  -4 -10 -12   58.33   14.34
  -4 -10 -12   95.29   13.54
   4 -10  12   97.05   12.63
  -4 -10 -12   83.15   18.95
  -4 -10 -12   52.07   16.85
   4  10  12  103.22    8.91
   4  10  12  100.50    7.77
   4  10  12   85.25    8.20
  -6 -10 -12   48.19   16.36
  -6 -10 -12   72.97   12.04
  -6 -10 -12   44.45   16.80
   6 -10  12   65.00   10.21
  -6 -10 -12   24.14   12.03
   6  10  12   62.44    6.45
   6  10  12   56.35    5.64
   6  10  12   60.09    6.67
   7 -11 -12  111.93   16.00
   7 -11 -12   78.24   10.80
   7 -11 -12   87.75   18.24
  -7 -11  12   82.29   10.43
  -7 -11  12  107.80   13.84
  -7  11  12   96.95    8.15
   7  11 -12   81.62    8.12
  -7  11  12  113.85    8.57
   5 -11 -12   49.66   10.98
  -5 -11  12   40.97    8.46
   5 -11 -12   42.91   14.28
   5 -11 -12   53.31   18.35
   5 -11 -12   49.11    8.02
  -5  11  12   49.73    5.76
  -5  11  12   51.16    5.38
   5  11 -12   55.48    5.53
   5  11 -12   64.23    8.54
   3 -11 -12   10.54    7.85
   3 -11 -12   16.30   10.11
   3 -11 -12    9.62   16.49
  -3 -11  12    5.44    6.12
   3 -11 -12  -11.03   15.17
   3  11 -12   10.10    5.13
  -3  11  12    6.18    2.16
  -3  11  12   13.02    2.99
   1 -11 -12   28.35   16.57
   1 -11 -12   23.24   12.54
   1 -11 -12   21.05    7.86
   1 -11 -12    1.60   14.53
  -1 -11  12   15.25    6.57
  -1  11  12   17.77    2.93
  -1  11  12   15.15    3.39
   1  11 -12   27.96    5.91
   1 -11  12  189.76   17.45
  -1 -11 -12  176.74   24.81
  -1 -11 -12  133.10   23.17
  -1 -11 -12  178.57   19.15
  -1 -11 -12  160.68   24.79
   1  11  12  176.27   13.91
   1  11  12  175.85   13.43
   1  11  12  178.19   13.99
  -3 -11 -12   52.19   13.63
  -3 -11 -12   77.19   18.68
   3 -11  12   98.37   11.26
  -3 -11 -12   75.57   18.16
  -3 -11 -12   74.57   11.90
   3  11  12   76.93    7.42
   3  11  12   72.53    6.65
   3  11  12   66.98    7.53
  -5 -11 -12    7.59   13.54
  -5 -11 -12   -6.38    9.68
  -5 -11 -12    3.83   13.57
   5 -11  12   -5.13    6.83
  -5 -11 -12   13.68    7.35
   5  11  12   -3.37    2.59
   5  11  12    7.73    2.31
   5  11  12    2.82    3.35
   4 -12 -12   44.61   15.95
   4 -12 -12   60.70   12.14
   4 -12 -12   61.71   20.59
   2 -12 -12   35.82   14.32
   2 -12 -12   53.69   19.18
   2 -12 -12   25.74    9.88
  -2 -12  12   34.24    8.61
   2 -12 -12   49.91   19.98
  -2  12  12   48.52    5.67
  -2  12  12   46.94    5.05
   0 -12  12   41.58    8.02
   0 -12 -12   25.98   17.57
   0 -12 -12   21.41   15.81
   0 -12 -12   20.84   12.40
   0 -12 -12    7.44    7.66
   0  12  12   14.81    2.87
   0  12  12    7.87    3.26
  -2 -12 -12   -1.13   15.19
  -2 -12 -12    1.57   11.11
   2 -12  12    4.14    6.88
  -2 -12 -12   11.39    7.96
  -2 -12 -12   33.88   16.95
   2  12  12    2.02    2.95
   2  12  12   -1.05    2.69
   2  12  12    1.24    2.12
  14   0 -13   -5.67    4.57
 -14   0  13    1.41    2.49
  14   0 -13   -1.49    7.78
  14   0 -13    0.96    9.40
  12   0 -13   -4.28    4.41
  12   0 -13   -3.29    8.35
  12   0 -13    0.55    6.94
 -12   0  13   -1.16    2.20
  10   0 -13    2.18    8.17
  10   0 -13   -2.14    6.46
 -10   0  13    0.68    2.10
  10   0 -13    2.44    4.16
   8   0 -13    4.04    3.96
  -8   0  13   -2.82    3.89
   8   0 -13    5.55    6.42
   8   0 -13    6.82    7.91
  -8   0  13    2.17    2.46
   6   0 -13   -3.08    7.20
  -6   0  13   -2.72    3.87
   6   0 -13    4.24    5.99
  -6   0  13   -3.80    2.14
   6   0 -13   -7.10    3.58
  -6   0  13   -3.71    2.40
   4   0 -13   10.75   11.59
  -4   0  13   -2.04    0.85
   4   0 -13    5.67    7.50
   4   0 -13   -0.63    3.55
  -4   0  13    1.29    3.66
  -4   0  13    1.16    2.29
   4   0 -13    5.11    5.71
   2   0 -13    1.76    5.46
   2   0 -13   -1.30   10.88
  -2   0  13   -2.32    2.18
   2   0 -13   -1.26   11.21
  -2   0  13   -1.45    3.66
   2   0 -13    2.87    6.58
   2   0 -13    5.15    3.43
  -2   0  13    1.19    0.96
   0   0  13   -3.75    3.28
   0   0 -13   -1.62    6.19
   0   0 -13    4.58    9.54
   0   0  13    2.85    2.36
   0   0  13    0.94    1.04
   0   0 -13    5.20    9.28
   0   0 -13    6.19    5.64
   2   0  13    1.24    1.01
  -2   0 -13   -5.29   11.84
   2   0  13   -3.25    3.44
  -2   0 -13    2.03    6.28
  -2   0 -13   -0.64    6.53
  -2   0 -13   -5.12   10.54
  -4   0 -13    8.25    6.20
   4   0  13   -2.38    3.64
  -4   0 -13  -20.94    9.19
  -4   0 -13   -7.22    6.71
   4   0  13    1.20    1.07
  -4   0 -13   -2.06   11.34
  -6   0 -13   -1.76    7.22
   6   0  13    1.46    1.49
   6   0  13   -0.81    3.98
  -6   0 -13    6.73   12.58
  -6   0 -13    1.22    6.22
  -6   0 -13    4.56   12.41
   8   0  13    0.16    1.70
  -8   0 -13   -1.17    8.18
  -8   0 -13    2.74    6.78
  -8   0 -13   26.87   13.32
   8   0  13   -5.39    4.53
  -8   0 -13   -2.24   11.15
 -10   0 -13    1.14   13.60
 -10   0 -13   -3.07    9.67
  10   0  13    2.85    5.55
 -10   0 -13    2.61    7.77
 -10   0 -13  -24.00   12.39
  10   0  13   -0.69    1.76
 -12   0 -13    6.49   12.26
  12   0  13   -1.94    2.07
 -12   0 -13  -24.14   14.61
 -12   0 -13   -5.22   14.86
 -12   0 -13   -3.25    9.61
 -13  -1  13    9.58    2.63
  13  -1 -13   -0.78    9.45
  13  -1 -13    7.50    7.76
  13  -1 -13    8.02    5.07
  13   1 -13   13.77    4.80
 -13   1  13    3.34    2.57
  13   1 -13    3.45    8.06
  13   1 -13    0.86    7.15
  11  -1 -13   10.68    9.42
  11  -1 -13   18.86    5.31
  11  -1 -13   -0.31    7.49
 -11  -1  13   12.86    2.77
 -11  -1  13   26.78    6.15
 -11   1  13   14.55    2.94
  11   1 -13   10.99    6.85
  11   1 -13   19.40    5.17
  11   1 -13    9.91    9.48
  -9  -1  13    3.50    3.50
   9  -1 -13   -1.24    3.86
   9  -1 -13    5.22    8.45
   9  -1 -13    0.09    6.66
  -9  -1  13   -5.16    2.17
  -9  -1  13   -3.92    4.54
  -9   1  13    3.69    2.21
   9   1 -13    3.31    7.86
   9   1 -13    0.23    4.00
   9   1 -13   -4.99    5.54
  -9   1  13    0.88    4.73
  -7  -1  13   -3.80    2.34
  -7  -1  13    6.44    4.04
   7  -1 -13    1.01    7.51
   7  -1 -13    1.83    3.76
   7  -1 -13    6.99    6.43
  -7  -1  13    4.86    2.36
  -7   1  13   -0.15    2.21
  -7   1  13    0.48    1.11
   7   1 -13   -0.76    6.97
  -7   1  13    2.80    3.87
   7   1 -13    0.40    5.40
   7   1 -13   -3.76    3.62
   5  -1 -13   16.97   11.01
   5  -1 -13    3.85    5.79
   5  -1 -13    8.70    4.20
   5  -1 -13    6.22    7.67
  -5  -1  13    6.73    2.73
  -5  -1  13   12.66    4.20
   5   1 -13    5.61    5.80
  -5   1  13    6.10    2.48
   5   1 -13    4.75    7.73
  -5   1  13    6.28    1.28
   5   1 -13   21.64   12.66
   5   1 -13    7.61    3.81
  -5   1  13    7.22    4.27
   3  -1 -13   -9.31    5.86
  -3  -1  13   -0.72    3.42
  -3  -1  13    0.02    0.86
   3  -1 -13   -2.28    4.87
   3  -1 -13   -4.83   10.55
   3  -1 -13   -3.77   10.86
  -3  -1  13   -1.02    2.28
   3  -1 -13   -2.86    3.41
   3   1 -13   -1.39    6.45
  -3   1  13   -3.11    0.97
   3   1 -13    9.20    5.65
  -3   1  13   -4.55    3.36
   3   1 -13    4.06    9.70
  -3   1  13   -1.19    2.27
  -1  -1  13   14.34    4.15
   1  -1 -13    5.46    7.05
   1  -1 -13   11.37    6.59
   1  -1 -13   21.13   12.35
  -1  -1  13   10.80    3.17
  -1  -1  13   15.94    1.64
   1  -1 -13    0.97   11.19
  -1   1  13    9.71    3.88
  -1   1  13   11.69    3.11
   1   1 -13   13.84   11.54
  -1   1  13   15.18    1.76
   1   1 -13   17.28   12.44
   1   1 -13    6.23    6.01
   1   1 -13   13.05    3.57
   1   1 -13    7.34    7.26
  -1  -1 -13    4.24    8.01
  -1  -1 -13   27.12   11.65
  -1  -1 -13   16.10   11.40
  -1  -1 -13   26.33    7.05
   1  -1  13   18.27    2.19
   1  -1  13   16.57    4.31
   1   1  13   22.89    4.70
   1   1  13   21.73    2.29
  -1   1 -13    5.67   11.17
  -1   1 -13   16.02    6.78
   1   1  13   20.82    3.72
  -1   1 -13   13.53    7.73
  -1   1 -13   13.49   11.08
   3  -1  13   12.75    1.54
  -3  -1 -13    8.75    6.15
  -3  -1 -13    6.62    7.30
  -3  -1 -13    5.99   11.85
  -3  -1 -13   -0.59   11.43
   3  -1  13   10.43    4.32
  -3   1 -13   21.46   10.92
  -3   1 -13   -1.69    6.86
   3   1  13    9.28    1.57
  -3   1 -13    5.05    6.37
   3   1  13    6.63    3.87
  -3   1 -13    6.52   10.52
  -5  -1 -13   34.49   13.85
  -5  -1 -13   30.20    9.50
   5  -1  13   42.85    6.45
  -5  -1 -13   28.17   13.37
   5  -1  13   30.61    3.11
  -5  -1 -13   34.95    8.40
  -5   1 -13   33.16   13.61
  -5   1 -13   20.75   12.67
   5   1  13   33.54    5.83
  -5   1 -13   36.25    8.45
   5   1  13   31.05    3.45
  -5   1 -13   25.54    9.31
  -7  -1 -13   -0.34   12.19
   7  -1  13   15.44    5.15
  -7  -1 -13    2.87    6.44
   7  -1  13   15.10    2.19
  -7  -1 -13   20.89    9.22
  -7  -1 -13   16.17   13.42
   7   1  13    9.94    4.97
  -7   1 -13   10.05    8.15
  -7   1 -13   21.45    7.72
  -7   1 -13   22.41   13.24
   7   1  13   11.74    2.22
  -7   1 -13   15.88   13.44
  -9  -1 -13    7.12   13.38
  -9  -1 -13    2.19    7.67
  -9  -1 -13   -3.37   12.76
   9  -1  13    1.34    1.73
   9  -1  13    1.78    5.28
  -9  -1 -13    6.69    9.23
   9   1  13    5.48    5.39
   9   1  13    0.89    1.76
  -9   1 -13  -13.76   12.14
  -9   1 -13    7.38    9.07
  -9   1 -13   -1.16    7.44
  -9   1 -13    6.47   14.07
  11  -1  13    2.89    2.00
 -11  -1 -13   -5.94    8.47
 -11  -1 -13   -3.33   10.80
  11  -1  13    2.90    9.20
 -11  -1 -13    0.53   15.24
 -11  -1 -13   17.10   16.64
 -11   1 -13   -0.10   10.66
  11   1  13   -1.32    1.84
  11   1  13   -6.60    6.04
 -11   1 -13    4.71    8.76
 -11   1 -13    0.29   14.19
 -11   1 -13  -15.08   13.69
  12  -2 -13   32.51    6.65
  12  -2 -13   20.83   11.17
  12  -2 -13   31.77   10.10
 -12  -2  13   37.12    7.45
 -12  -2  13   30.43    3.85
 -12   2  13   33.71    4.10
  12   2 -13   43.83    9.39
  12   2 -13   38.38    5.94
  12   2 -13   28.46    9.09
 -10  -2  13    2.02    2.17
 -10  -2  13   10.01    4.76
  10  -2 -13    6.18    6.93
  10  -2 -13   -0.31    8.28
  10  -2 -13    1.33    4.38
 -10  -2  13    0.60    3.72
  10   2 -13    1.38    6.14
 -10   2  13    1.30    2.17
  10   2 -13   -4.45    7.48
  10   2 -13    0.55    3.85
  -8  -2  13    2.31    2.43
   8  -2 -13   -0.81    4.26
   8  -2 -13    4.83    6.91
   8  -2 -13    1.64    8.47
  -8  -2  13   10.04    4.63
  -8  -2  13   -3.36    2.67
  -8   2  13   -5.32    3.81
  -8   2  13   -1.42    2.16
   8   2 -13    0.58    5.89
   8   2 -13    1.14    3.77
   8   2 -13   -3.14    6.39
   6  -2 -13   23.48    5.07
  -6  -2  13   21.70    5.69
  -6  -2  13   22.61    3.58
   6  -2 -13   27.08    7.70
   6  -2 -13    9.67   11.12
  -6  -2  13   23.60    3.64
   6  -2 -13   27.15   10.01
   6   2 -13   21.37    7.08
  -6   2  13   27.45    2.67
  -6   2  13   18.08    3.27
  -6   2  13   25.24    5.24
   6   2 -13   12.40    8.05
   6   2 -13   23.72    4.79
  -4  -2  13   83.98    9.84
   4  -2 -13   82.23   17.34
   4  -2 -13   57.29   13.30
   4  -2 -13   66.70   15.37
   4  -2 -13   99.72   10.21
   4  -2 -13   91.90   12.86
  -4  -2  13   99.58    8.32
   4   2 -13  123.09   19.08
  -4   2  13   76.19    9.45
   4   2 -13   96.51   12.66
   4   2 -13   95.40   14.61
   4   2 -13   96.02    9.01
  -4   2  13   96.15    6.99
  -2  -2  13   10.94    2.91
  -2  -2  13   11.41    4.28
   2  -2 -13   16.81    6.68
   2  -2 -13    9.90    7.62
   2  -2 -13    4.91   10.55
   2  -2 -13    1.23   11.52
  -2   2  13    8.22    1.52
   2   2 -13   11.52    8.13
   2   2 -13   -6.52   10.59
  -2   2  13    8.27    4.07
   2   2 -13    4.14    3.14
  -2   2  13    8.95    2.76
   2   2 -13    8.31    6.28
   0  -2 -13    5.81    6.87
   0  -2 -13   11.10   11.73
   0  -2 -13    4.84   11.31
   0  -2 -13    9.90    5.58
   0  -2  13    9.48    1.17
   0  -2  13   11.33    4.01
   0   2  13    6.92    2.66
   0   2  13    5.61    1.36
   0   2 -13    9.37    6.23
   0   2 -13   10.93   10.08
   0   2  13    8.74    4.07
   0   2 -13    6.57    6.96
   0   2 -13    0.77    3.15
   0   2 -13   -2.41   10.96
  -2  -2 -13   28.03    7.67
  -2  -2 -13   20.31    8.88
  -2  -2 -13   23.46   12.75
  -2  -2 -13    5.82   11.58
   2  -2  13   36.15    5.92
   2  -2  13   37.76    2.97
   2   2  13   34.87    5.73
   2   2  13   35.36    4.75
   2   2  13   31.74    3.81
  -2   2 -13   17.50   12.40
  -2   2 -13   28.04   13.21
  -2   2 -13   18.86    8.37
  -2   2 -13   33.31    7.81
  -4  -2 -13  115.08   14.53
  -4  -2 -13  136.94   20.87
  -4  -2 -13   95.21   16.38
  -4  -2 -13  126.72   20.87
   4  -2  13  120.59   11.74
   4  -2  13  124.56    8.64
  -4   2 -13  101.05   18.14
  -4   2 -13   93.96   15.58
   4   2  13  129.61   11.27
   4   2  13  109.12    8.87
  -4   2 -13  119.97   14.00
  -4   2 -13   98.83   18.64
  -6  -2 -13   -2.14   12.27
   6  -2  13   10.10    1.59
  -6  -2 -13   -0.06    7.81
  -6  -2 -13   -4.62   11.04
  -6  -2 -13    7.60    6.89
   6  -2  13    4.23    4.17
  -6   2 -13  -10.22   10.57
  -6   2 -13   16.91   13.47
   6   2  13    7.25    4.69
  -6   2 -13   14.34    8.19
   6   2  13    4.04    1.75
  -6   2 -13    7.12    6.47
  -8  -2 -13    4.64    6.93
   8  -2  13   -0.51    1.50
  -8  -2 -13   -2.59    8.45
  -8  -2 -13    5.84   12.44
   8  -2  13    1.19    4.82
  -8  -2 -13   -3.41   12.53
   8   2  13    4.27    4.89
  -8   2 -13    6.65   12.93
  -8   2 -13    6.24    6.86
  -8   2 -13    3.39   13.70
   8   2  13    2.99    1.83
  -8   2 -13    4.53    8.58
 -10  -2 -13   17.68   14.99
 -10  -2 -13    2.10   13.98
 -10  -2 -13    7.38    9.99
  10  -2  13    9.45    2.24
 -10  -2 -13    4.47    8.27
 -10   2 -13   18.23   15.02
 -10   2 -13    3.60    7.78
  10   2  13    9.08    2.24
 -10   2 -13    4.33    9.76
  10   2  13   14.85    6.25
 -10   2 -13   -4.89   14.42
 -12  -2 -13   34.36   11.37
 -12  -2 -13   19.40   12.99
  13  -3 -13    1.91    5.52
  13  -3 -13   -0.82   10.21
 -13  -3  13    6.70    6.00
  13  -3 -13   16.86    9.27
  13   3 -13   -3.83    5.88
  13   3 -13   -2.47    7.49
  13   3 -13    3.60    4.38
 -13   3  13    2.48    2.51
 -11  -3  13   15.38    5.09
 -11  -3  13   18.51    5.73
  11  -3 -13   28.84    9.21
 -11  -3  13   17.17    2.91
  11  -3 -13   29.59   12.03
  11  -3 -13   24.90    5.92
 -11   3  13   18.86    3.21
  11   3 -13   12.19    8.36
  11   3 -13   10.40    4.27
  11   3 -13   20.99    7.45
   9  -3 -13   39.78    9.89
  -9  -3  13   62.98    7.98
   9  -3 -13   78.15    9.48
   9  -3 -13   71.43   14.80
  -9  -3  13   73.09    6.39
   9   3 -13   70.26   10.65
   9   3 -13   56.82   11.55
   9   3 -13   59.51    7.80
  -9   3  13   61.32    6.15
   7  -3 -13   64.51   15.32
   7  -3 -13  136.45   20.00
  -7  -3  13  105.02    9.71
   7  -3 -13  101.92   13.98
  -7  -3  13  116.04   11.74
   7  -3 -13   95.31   11.17
  -7  -3  13  101.11    9.07
  -7   3  13  115.28   10.93
  -7   3  13  108.67    8.31
   7   3 -13  133.42   10.49
  -7   3  13  102.87    9.10
   7   3 -13  110.20   13.52
   7   3 -13  106.04   15.68
   5  -3 -13   27.52   12.46
   5  -3 -13   21.54    8.79
  -5  -3  13   12.96    4.66
   5  -3 -13    6.44   11.32
   5  -3 -13   17.71    6.50
   5  -3 -13   24.79    5.41
  -5  -3  13   21.70    3.66
  -5   3  13   18.78    4.51
  -5   3  13   19.58    2.41
   5   3 -13   17.98    4.29
  -5   3  13   17.03    3.24
   5   3 -13   26.11    9.09
   5   3 -13   20.47    6.94
   3  -3 -13   33.12    5.72
   3  -3 -13   25.08    7.40
   3  -3 -13   31.85   12.36
  -3  -3  13   36.56    4.54
   3  -3 -13   26.60    9.69
   3  -3 -13   23.81   12.20
  -3  -3  13   35.93    6.14
  -3   3  13   34.39    4.50
   3   3 -13   23.16    9.19
   3   3 -13   37.25    4.80
   3   3 -13   34.81    7.88
  -3   3  13   34.70    5.55
  -3   3  13   31.12    3.38
   3   3 -13   43.75   13.16
   1  -3 -13  149.81   15.59
   1  -3 -13  123.07   20.66
   1  -3 -13  146.63   22.29
   1  -3 -13  108.06   16.90
  -1  -3  13  150.14   13.14
  -1   3  13  146.16   12.45
   1   3 -13  143.10   15.16
  -1   3  13  133.83   10.42
   1   3 -13  168.88   11.76
   1   3 -13  129.55   16.94
   1   3 -13  153.51   21.09
  -1   3  13  116.94   11.29
  -1  -3 -13   69.83   15.31
  -1  -3 -13   60.05   10.06
   1  -3  13   62.70    8.47
  -1  -3 -13   52.57   12.65
  -1  -3 -13   72.88   15.96
  -1   3 -13   55.32   14.72
   1   3  13   59.36    6.74
  -1   3 -13   67.15    7.05
   1   3  13   65.72    8.05
   1   3  13   68.08    5.55
  -1   3 -13   71.29   12.37
  -1   3 -13   83.91   17.22
  -1   3 -13   78.66   10.73
  -3  -3 -13    5.99   11.62
  -3  -3 -13    3.76   11.20
   3  -3  13   14.28    4.70
  -3  -3 -13   13.84    6.58
  -3  -3 -13    1.12    8.03
   3  -3  13   14.09    1.45
  -3   3 -13   19.71    3.59
   3   3  13   14.50    4.26
  -3   3 -13   10.72    6.03
  -3   3 -13    9.46    9.91
   3   3  13    7.92    1.91
  -3   3 -13   15.31    8.14
  -3   3 -13   13.80   11.37
   3   3  13    7.52    2.95
  -5  -3 -13   12.52   13.10
   5  -3  13   16.54    1.87
   5  -3  13   22.71    5.26
  -5  -3 -13   12.25    8.88
  -5  -3 -13    7.76    6.49
  -5  -3 -13   10.47   12.47
   5   3  13   11.24    3.33
   5   3  13   17.43    2.36
  -5   3 -13    6.39    6.22
  -5   3 -13    3.58   10.91
  -5   3 -13   21.88   12.97
   5   3  13   12.82    4.35
  -5   3 -13   15.00    8.28
  -7  -3 -13   50.26   16.52
  -7  -3 -13   59.27   10.19
  -7  -3 -13   26.97   10.99
   7  -3  13   62.81    8.31
  -7  -3 -13   59.49   16.87
   7  -3  13   51.39    4.30
   7   3  13   48.07    4.62
  -7   3 -13   26.98   10.18
   7   3  13   60.63    7.25
  -7   3 -13   42.75   14.22
  -7   3 -13   35.44    8.50
  -7   3 -13   49.20   13.95
  -9  -3 -13   27.78   11.54
   9  -3  13   47.05    4.42
  -9  -3 -13   46.59   15.90
  -9  -3 -13   27.44   15.16
  -9  -3 -13   48.25   10.19
  -9   3 -13   47.36   11.18
   9   3  13   59.55    7.98
  -9   3 -13   42.63   15.82
   9   3  13   37.90    4.48
  -9   3 -13   27.50    8.68
  -9   3 -13   37.46   15.09
 -11  -3 -13   23.94   12.07
  11  -3  13   36.68    4.28
 -11  -3 -13   44.84   18.04
 -11  -3 -13   23.45   10.54
  11  -3  13   34.94    8.41
 -11  -3 -13   52.36   18.48
 -11   3 -13   26.43   16.04
 -11   3 -13   30.89   17.44
  11   3  13   31.92    3.99
  12  -4 -13  113.54   12.91
  12  -4 -13  122.17   16.38
  12  -4 -13  143.27   20.75
 -12  -4  13  105.47   12.02
 -12  -4  13  110.90   13.68
  12   4 -13  121.40   16.67
 -12   4  13  115.43    9.53
  12   4 -13  101.66   10.97
  12   4 -13  102.24   13.87
  10  -4 -13   58.23   14.70
  10  -4 -13  113.14   15.08
  10  -4 -13   89.56   10.93
 -10  -4  13   98.98   11.76
 -10  -4  13   74.82    7.46
 -10  -4  13   81.60    9.65
  10   4 -13   96.54   14.69
  10   4 -13   94.49   12.69
 -10   4  13   86.13    7.78
  10   4 -13   99.76    9.16
  -8  -4  13   -0.15    2.59
  -8  -4  13   -4.50    4.55
  -8  -4  13   -2.08    3.22
   8  -4 -13    6.26    8.83
   8  -4 -13   -0.39    4.00
   8  -4 -13   -5.24    6.61
   8   4 -13    6.32    5.30
  -8   4  13    3.03    1.94
   8   4 -13    4.57    7.27
   8   4 -13    3.18    3.40
  -8   4  13    1.23    1.66
   6  -4 -13  131.28   15.38
  -6  -4  13  121.26    9.78
   6  -4 -13   85.48   18.14
  -6  -4  13  123.55   12.01
   6  -4 -13   77.73   15.50
   6  -4 -13  118.24   12.03
  -6   4  13  118.53    9.83
  -6   4  13  110.16    8.90
   6   4 -13  119.94   16.14
  -6   4  13  115.31   11.21
   6   4 -13  138.56   14.49
  -4  -4  13  142.02   11.65
   4  -4 -13  123.07   15.93
  -4  -4  13  159.37   13.70
   4  -4 -13  130.08   13.06
   4  -4 -13  149.93   22.17
   4  -4 -13  131.98   19.80
   4  -4 -13  116.25   18.31
   4   4 -13  137.13   11.67
  -4   4  13  128.53   11.48
   4   4 -13  182.64   15.92
  -4   4  13  163.08   12.87
  -4   4  13  144.12   10.71
   2  -4 -13   45.03   14.10
   2  -4 -13   57.34   15.13
  -2  -4  13   42.64    6.70
   2  -4 -13   32.01   10.03
  -2   4  13   62.27    6.98
  -2   4  13   56.84    4.55
   2   4 -13   55.91   10.29
   2   4 -13   36.00   13.17
   2   4 -13   38.66    8.34
  -2   4  13   50.37    5.89
   2   4 -13   47.69    5.98
   0  -4 -13    1.94    8.60
   0  -4  13   14.94    4.77
   0  -4 -13   18.09   11.74
   0  -4 -13   13.15   11.89
   0  -4 -13    5.16    6.30
   0   4  13    8.47    1.83
   0   4 -13   16.02    7.12
   0   4 -13   15.07    3.25
   0   4 -13   19.28   12.09
   0   4  13   11.61    4.15
   0   4 -13   11.34    6.15
   0   4  13   12.37    3.22
  -2  -4 -13   47.10   12.25
   2  -4  13   80.62    9.12
  -2  -4 -13   71.97   10.93
  -2  -4 -13  102.08   18.17
  -2  -4 -13   42.80   15.05
   2   4  13   68.47    5.59
  -2   4 -13   68.14   11.60
   2   4  13   68.77    6.95
  -2   4 -13   51.01    9.44
  -2   4 -13   54.78   14.17
   2   4  13   63.72    8.26
  -4  -4 -13   58.82   16.36
  -4  -4 -13   42.93   14.86
   4  -4  13   68.69    8.55
  -4  -4 -13   54.00    9.83
  -4  -4 -13   54.99   13.23
  -4   4 -13   57.82   10.75
  -4   4 -13   67.97    9.62
   4   4  13   61.78    5.22
   4   4  13   65.52    8.16
  -4   4 -13   50.61   15.20
   4   4  13   49.96    6.49
  -4   4 -13   35.90   13.59
   6  -4  13   73.43    9.24
  -6  -4 -13   84.12   18.07
  -6  -4 -13   49.04   15.85
  -6  -4 -13   43.73   12.19
   6  -4  13   84.36    5.79
  -6  -4 -13   56.30   10.93
  -6   4 -13   55.68    9.61
  -6   4 -13   67.81   16.38
   6   4  13   67.06    7.88
  -6   4 -13   84.84   13.55
   6   4  13   68.62    6.00
   6   4  13   58.25    7.47
  -6   4 -13   64.80   17.58
  -8  -4 -13   18.42   14.22
  -8  -4 -13    2.14   13.31
  -8  -4 -13   29.41    8.89
   8  -4  13    8.54    2.16
  -8  -4 -13    4.72    9.15
   8   4  13    7.24    3.34
  -8   4 -13    1.06   13.20
   8   4  13    9.72    2.14
  -8   4 -13    3.99    7.86
  -8   4 -13   12.51    7.49
  -8   4 -13   -7.47   13.12
 -10  -4 -13   77.82   19.78
 -10  -4 -13   55.46   14.57
  10  -4  13   65.77    5.90
 -10  -4 -13   75.45   12.71
 -10  -4 -13   77.48   19.27
  10  -4  13   74.32   10.00
  10   4  13   70.42    6.20
 -10   4 -13   15.87   14.75
 -10   4 -13   88.35   20.02
  11  -5 -13   11.02    8.98
  11  -5 -13   11.08   11.59
 -11  -5  13   20.59    6.85
  11  -5 -13   -0.92    5.12
 -11  -5  13    8.40    5.03
 -11   5  13   11.03    2.88
  11   5 -13   13.84    4.10
  11   5 -13   11.89    7.80
  11   5 -13    6.30    5.84
  -9  -5  13  168.14   13.63
  -9  -5  13  186.32   15.02
   9  -5 -13  164.59   23.40
  -9  -5  13  178.02   17.01
   9  -5 -13  177.33   19.73
   9  -5 -13  201.16   16.87
  -9   5  13  168.05   13.80
   9   5 -13  178.98   14.52
  -9   5  13  176.63   13.35
   9   5 -13  188.05   19.86
   7  -5 -13   82.53   10.27
  -7  -5  13   90.07   11.00
   7  -5 -13   62.79   14.01
  -7  -5  13   71.51    7.90
   7  -5 -13   87.85   13.26
  -7  -5  13   90.19    8.87
   7  -5 -13   58.04   17.30
   7   5 -13  109.21   14.51
   7   5 -13   98.45    8.40
  -7   5  13   81.73    6.92
  -7   5  13   81.87    7.60
   7   5 -13   77.94   11.69
   5  -5 -13   11.86   12.80
   5  -5 -13   22.41    8.14
  -5  -5  13   21.60    3.64
   5  -5 -13   10.57    8.86
   5  -5 -13   29.34   13.51
   5  -5 -13   27.82    5.50
  -5  -5  13   21.10    5.78
  -5   5  13   24.61    3.82
   5   5 -13   29.88    3.72
   5   5 -13   24.65    8.33
   5   5 -13   21.35    6.43
  -5   5  13   21.47    2.78
  -3  -5  13    7.64    4.68
   3  -5 -13   -0.45   11.40
   3  -5 -13    5.04    6.24
   3  -5 -13   -1.52    7.26
   3  -5 -13    7.84   12.16
   3   5 -13   13.17    2.88
   3   5 -13    5.22    6.90
  -3   5  13   10.58    2.71
   3   5 -13    9.64    5.81
  -3   5  13    9.41    1.92
  -3   5  13    9.39    4.04
  -1  -5  13  175.29   15.56
   1  -5 -13  157.02   20.47
   1  -5 -13  171.74   24.48
   1  -5 -13  149.38   22.94
  -1   5  13  172.45   13.93
   1   5 -13  195.52   19.33
  -1   5  13  171.92   14.67
   1   5 -13  178.82   16.78
  -1   5  13  175.12   12.98
  -1  -5 -13  122.56   21.20
   1  -5  13  159.99   13.63
  -1  -5 -13  144.93   15.84
  -1  -5 -13  111.34   18.07
  -1  -5 -13  146.21   22.83
   1   5  13  136.58   11.77
  -1   5 -13  151.34   21.21
  -1   5 -13  137.15   16.48
   1   5  13  141.59   10.72
   1   5  13  146.30   12.46
  -3  -5 -13   18.01   12.82
  -3  -5 -13   11.59    8.82
  -3  -5 -13   11.08    6.74
  -3  -5 -13    5.64   11.82
   3  -5  13   12.41    5.02
  -3   5 -13    4.29    9.62
  -3   5 -13    2.15    6.89
   3   5  13    4.37    2.88
  -3   5 -13    7.25    5.90
   3   5  13    8.28    1.86
   3   5  13   10.79    4.15
  -5  -5 -13   11.51   11.53
  -5  -5 -13    6.41    9.68
  -5  -5 -13    5.24   12.54
   5  -5  13   13.63    5.34
  -5  -5 -13    4.11    6.24
   5   5  13    3.97    3.19
  -5   5 -13    9.62   11.39
   5   5  13    6.68    1.91
  -5   5 -13   21.37   13.11
  -5   5 -13   12.57    6.30
  -5   5 -13   17.63    7.88
   5   5  13    9.80    4.32
   7  -5  13   81.19   10.34
  -7  -5 -13   63.99   17.38
  -7  -5 -13   81.52   16.05
  -7  -5 -13   75.44   12.21
  -7  -5 -13   69.71   18.15
  -7   5 -13  101.27   19.80
  -7   5 -13   77.73   18.33
   7   5  13   83.77    7.17
  -7   5 -13   84.80   12.31
   7   5  13   92.77    8.91
  -7   5 -13   93.39   14.06
  -9  -5 -13  106.03   21.68
   9  -5  13  105.27   13.73
  -9  -5 -13  130.58   22.81
  -9  -5 -13   88.32   17.32
  -9  -5 -13  169.72   18.13
   9   5  13  116.46   11.23
  -9   5 -13  116.34   21.77
   9   5  13  127.63    9.57
  -9   5 -13   83.48   19.06
  12  -6 -13  152.35   23.76
  12  -6 -13  148.46   15.25
 -12  -6  13  143.95   14.43
  12  -6 -13  131.15   18.22
 -12  -6  13  153.16   16.30
  12   6 -13  162.72   18.39
  12   6 -13  151.00   12.88
 -12   6  13  140.38   11.75
  12   6 -13  138.23   15.94
  10  -6 -13   64.00   12.49
  10  -6 -13   45.77    8.06
 -10  -6  13   64.60    9.15
 -10  -6  13   52.44    7.20
  10  -6 -13   70.15   14.78
  10   6 -13   63.15    6.96
  10   6 -13   34.87    8.16
  10   6 -13   53.89   10.87
 -10   6  13   55.63    5.14
 -10   6  13   38.95    5.47
  -8  -6  13   13.51    4.23
  -8  -6  13   14.86    3.57
  -8  -6  13    5.96    5.80
   8  -6 -13   -0.15   11.21
   8  -6 -13    0.53    7.25
   8  -6 -13    9.73    5.05
  -8   6  13   11.57    2.78
   8   6 -13   12.33    3.50
   8   6 -13   15.83    6.28
  -8   6  13    8.05    2.17
   8   6 -13   16.85    7.73
   6  -6 -13   95.20   17.27
   6  -6 -13   73.45    9.90
   6  -6 -13   66.31   16.89
   6  -6 -13   62.01   14.92
  -6  -6  13   66.84    7.32
   6  -6 -13   57.56   11.23
   6   6 -13   91.11   13.43
   6   6 -13   79.17    6.87
  -6   6  13   64.73    6.95
   6   6 -13  102.43   11.78
  -6   6  13   69.18    6.22
   4  -6 -13   85.02   15.81
   4  -6 -13   63.77   17.26
  -4  -6  13  125.96    9.59
  -4  -6  13  119.87   11.74
   4  -6 -13  120.86   14.95
   4  -6 -13   94.07   18.09
   4   6 -13  124.82   15.08
   4   6 -13  118.52   13.32
  -4   6  13  102.10    8.47
  -4   6  13   96.75    9.29
   2  -6 -13   85.74   16.19
   2  -6 -13   81.13   18.07
   2  -6 -13   78.68   17.53
  -2  -6  13   89.93   10.15
   2  -6 -13   85.17   12.73
   2   6 -13   76.86   12.58
  -2   6  13   83.80    6.96
  -2   6  13   87.95    7.92
   2   6 -13   89.19   11.75
   0  -6  13   -3.65    4.24
   0  -6 -13   13.02   14.01
   0  -6 -13   -7.51   11.81
   0  -6 -13   -4.81    7.38
   0  -6 -13    2.02    5.51
   0   6  13    4.88    3.76
   0   6  13    4.62    2.65
   0   6  13   -1.06    1.48
   0   6 -13    1.50    6.55
   0   6 -13    9.92    5.54
  -2  -6 -13   59.78   13.67
   2  -6  13   79.48    9.61
  -2  -6 -13   52.48   10.65
  -2  -6 -13   73.52   17.26
  -2  -6 -13   88.00   17.55
   2   6  13   72.79    6.21
   2   6  13   83.60    8.55
  -2   6 -13   79.08   11.71
  -2   6 -13   78.80   10.06
   2   6  13   68.05    7.49
  -4  -6 -13   92.69   17.01
  -4  -6 -13  106.06   14.85
  -4  -6 -13  105.97   19.87
   4  -6  13  121.05   13.16
  -4  -6 -13   72.99   19.19
  -4   6 -13  135.54   13.60
   4   6  13  133.58    9.56
  -4   6 -13  117.47   15.09
   4   6  13  132.59   10.84
  -4   6 -13  106.24   19.14
  -6  -6 -13  101.27   19.51
  -6  -6 -13  142.88   15.87
  -6  -6 -13   81.53   18.95
  -6  -6 -13   87.83   16.72
   6  -6  13  140.71   13.55
  -6   6 -13  138.30   13.48
  -6   6 -13  124.67   15.13
   6   6  13  107.48    9.22
  -6   6 -13  114.82   20.61
  -8  -6 -13    7.72   12.82
  -8  -6 -13   -4.73   12.86
  -8  -6 -13    0.70    7.95
   8  -6  13    3.35    5.80
  -8  -6 -13   10.71   10.25
   8   6  13    1.42    3.51
  -8   6 -13   10.89   12.76
   8   6  13    2.86    2.54
   8   6  13    1.92    1.96
 -10  -6 -13   64.59   21.03
  10  -6  13   84.91   11.53
 -10  -6 -13   80.62   20.01
 -10  -6 -13   79.72   14.25
 -10  -6 -13   70.47   16.24
 -10   6 -13   80.48   19.71
  10   6  13   93.78    7.44
  10   6  13   81.57    9.07
  10   6  13   80.45    9.49
  11  -7 -13   24.61    7.34
  11  -7 -13   33.44   13.58
 -11  -7  13   37.19    8.32
  11  -7 -13   39.72   11.86
 -11  -7  13   42.51    7.15
  11   7 -13   47.14   10.82
  11   7 -13   41.56    5.12
  11   7 -13   36.42    7.81
 -11   7  13   37.45    4.67
   9  -7 -13   21.24    9.54
   9  -7 -13   41.49    7.41
  -9  -7  13   40.27    6.38
  -9  -7  13   39.03    8.08
   9  -7 -13   42.59   13.49
  -9   7  13   46.35    5.26
   9   7 -13   44.57    9.75
   9   7 -13   50.88    8.94
   9   7 -13   49.88    6.45
  -9   7  13   37.61    4.56
  -7  -7  13   65.22    7.56
  -7  -7  13   75.51    8.59
   7  -7 -13   84.49   10.03
   7  -7 -13   54.27   12.05
  -7  -7  13   92.09   10.39
   7   7 -13   88.12   11.58
  -7   7  13   74.28    7.16
   7   7 -13   95.80   13.66
  -7   7  13   69.53    6.43
   5  -7 -13    9.33   13.62
   5  -7 -13  -20.14   12.88
  -5  -7  13    2.14    5.65
  -5  -7  13    7.24    3.11
   5  -7 -13    2.50    8.93
   5  -7 -13   -0.11    4.14
   5  -7 -13   -0.43    7.04
   5   7 -13    8.84    5.50
   5   7 -13    8.31    6.80
  -5   7  13    1.63    2.37
  -5   7  13    6.58    1.91
   5   7 -13    8.81    2.25
  -3  -7  13    9.95    6.72
   3  -7 -13   19.94   14.91
   3  -7 -13    2.62    6.37
   3  -7 -13   10.21    9.58
   3  -7 -13  -13.12   11.89
  -3   7  13    8.05    1.88
   3   7 -13    5.62    2.19
   3   7 -13   -1.32    5.24
  -3   7  13    6.99    2.67
   3   7 -13    6.87    6.90
   1  -7 -13   78.24   12.30
  -1  -7  13   87.98   10.81
   1  -7 -13   74.80   15.52
   1  -7 -13   88.93   19.56
   1  -7 -13   76.11   18.00
   1   7 -13   90.09   11.65
  -1   7  13   90.36    7.28
   1   7 -13  113.69   13.16
  -1   7  13   83.37    8.15
  -1  -7 -13   73.37   15.23
  -1  -7 -13   91.08   18.20
  -1  -7 -13   71.13   17.43
   1  -7  13   97.60   12.56
  -1  -7 -13   59.44   11.10
   1   7  13  100.01    8.53
  -1   7 -13  100.75   12.99
   1   7  13   94.21    7.40
  -3  -7 -13    7.89   12.76
  -3  -7 -13   22.82   10.76
  -3  -7 -13   18.02   13.53
   3  -7  13   18.43    6.41
  -3  -7 -13   18.26    7.47
   3   7  13   20.30    2.84
  -3   7 -13   21.80    6.40
   3   7  13   23.49    3.93
  -3   7 -13   17.40    7.03
  -5  -7 -13   20.54   10.82
  -5  -7 -13   21.68   12.87
  -5  -7 -13   41.72   14.97
   5  -7  13   35.08    7.19
  -5  -7 -13   11.73    7.19
  -5   7 -13   14.21   13.98
  -5   7 -13   31.36    6.84
   5   7  13   31.47    3.59
   5   7  13   35.12    5.00
  -5   7 -13   32.52    7.95
  -7  -7 -13   88.43   17.00
   7  -7  13   96.22   12.40
  -7  -7 -13   79.09   18.21
  -7  -7 -13   70.30   19.35
  -7  -7 -13   63.82   12.65
  -7   7 -13   64.13   17.06
   7   7  13   83.18    8.96
   7   7  13   82.95    7.57
   7   7  13   88.24    7.24
  -9  -7 -13   24.91   10.29
  -9  -7 -13   -9.28   15.64
  -9  -7 -13   30.09   16.43
  -9  -7 -13   20.59   12.77
   9  -7  13   47.01    8.53
   9   7  13   39.39    4.53
  -9   7 -13   40.09   16.22
   9   7  13   41.83    4.78
   9   7  13   41.30    6.16
 -10  -8  13   10.32    6.77
  10  -8 -13   18.31   12.25
  10  -8 -13   18.39    6.37
  10  -8 -13   24.92   10.14
 -10  -8  13   22.97    5.90
  10   8 -13   32.45    4.02
 -10   8  13   22.38    3.62
  10   8 -13   25.95    6.98
   8  -8 -13    6.34    5.03
  -8  -8  13    2.97    5.67
  -8  -8  13   -0.98    3.96
   8  -8 -13    9.71   10.86
   8  -8 -13   -7.94    8.04
  -8   8  13    1.30    2.32
   8   8 -13    1.34    2.33
   8   8 -13    2.85    6.74
   8   8 -13  -10.28    4.64
  -8   8  13    3.86    2.07
   6  -8 -13   68.67    9.26
   6  -8 -13   69.82   17.48
  -6  -8  13   64.61    7.59
   6  -8 -13   60.41   17.78
   6  -8 -13   47.94   14.69
   6  -8 -13   61.03   11.60
  -6  -8  13   79.16    9.71
   6   8 -13   66.73    9.79
  -6   8  13   66.70    6.79
   6   8 -13  101.24   13.17
  -6   8  13   76.00    6.28
   4  -8 -13   78.39   17.77
   4  -8 -13   54.86   11.25
   4  -8 -13   40.98   13.68
   4  -8 -13   82.14   18.41
  -4  -8  13   60.78    7.59
  -4  -8  13   61.82    9.17
  -4   8  13   64.34    6.12
   4   8 -13   73.84   10.46
   4   8 -13   81.17    6.23
   4   8 -13   90.05   12.48
  -4   8  13   72.89    6.85
   2  -8 -13    2.10   13.38
  -2  -8  13    4.18    5.04
   2  -8 -13    9.59    7.54
   2  -8 -13    9.02   14.59
   2  -8 -13    9.55   10.06
  -2   8  13    0.31    1.65
   2   8 -13   -0.22    5.66
   2   8 -13    8.57    5.13
  -2   8  13    0.25    2.43
   0  -8 -13   -3.68    8.45
   0  -8  13   -3.10    5.03
   0  -8 -13    1.44   13.07
   0  -8 -13    4.06    5.99
   0  -8 -13  -12.21   12.45
   0   8 -13   -1.37    4.95
   0   8  13    5.60    1.82
   0   8  13    2.60    2.71
   0   8 -13   12.60    6.54
  -2  -8 -13   18.74   10.88
   2  -8  13   21.94    6.53
  -2  -8 -13   12.56    7.13
  -2  -8 -13   -8.15   12.17
  -2  -8 -13   12.90   13.47
   2   8  13   11.48    2.32
  -2   8 -13   19.69    5.64
  -2   8 -13   18.90    6.46
   2   8  13   14.02    3.45
  -4  -8 -13   44.00   16.33
  -4  -8 -13   60.46   16.22
  -4  -8 -13   42.94    9.34
  -4  -8 -13   26.79   11.83
   4  -8  13   69.02    8.90
   4   8  13   51.83    6.11
   4   8  13   42.04    4.75
  -4   8 -13   50.14    7.35
  -4   8 -13   53.47    8.65
  -6  -8 -13   25.36   12.82
  -6  -8 -13   18.03   14.58
  -6  -8 -13   31.17   16.41
  -6  -8 -13   27.81    9.49
   6  -8  13   25.32    7.65
   6   8  13   25.52    3.56
   6   8  13   26.09    4.72
   6   8  13   32.53    4.05
  -8  -8 -13  -12.38    8.48
  -8  -8 -13   12.73   12.12
  -8  -8 -13    6.32   14.89
  -8  -8 -13    5.45   13.51
   8  -8  13  -10.04    6.64
   8   8  13   -2.87    2.89
   8   8  13    5.94    4.11
   8   8  13    0.25    2.03
  -7  -9  13   29.29    7.84
  -7  -9  13   32.30    6.00
   7  -9 -13   22.45    6.17
   7  -9 -13   39.07   12.84
   7  -9 -13   25.96   10.14
  -7   9  13   28.50    4.19
  -7   9  13   23.17    3.49
   7   9 -13   29.09    3.80
   7   9 -13   38.31    7.82
   5  -9 -13    5.80    8.10
   5  -9 -13   13.77   11.18
  -5  -9  13   20.79    6.18
   5  -9 -13   25.39   16.39
  -5  -9  13   11.23    3.64
   5  -9 -13    8.91   15.14
   5  -9 -13    3.68    4.81
   5   9 -13    4.60    5.65
  -5   9  13    7.06    2.44
   5   9 -13   20.73    7.52
   5   9 -13    9.04    2.43
  -5   9  13   15.57    3.15
   3  -9 -13   18.84   16.11
   3  -9 -13   22.11    7.95
  -3  -9  13   24.74    6.32
   3  -9 -13   22.50   16.55
   3  -9 -13   17.44   11.67
  -3   9  13   15.93    2.61
   3   9 -13   19.28    7.11
   3   9 -13   13.78    6.05
  -3   9  13   23.25    3.80
   1  -9 -13   17.25    8.12
   1  -9 -13   19.92   15.31
   1  -9 -13   12.53   15.16
  -1  -9  13   20.50    6.73
   1  -9 -13   20.05   10.94
   1   9 -13   15.80    5.91
   1   9 -13   13.79    6.62
  -1   9  13    7.91    2.21
  -1   9  13   12.74    3.21
   1  -9  13   18.13    6.40
  -1  -9 -13   15.32    7.41
  -1  -9 -13   11.22   10.55
  -1  -9 -13   28.99   15.45
  -1  -9 -13    9.93   13.91
  -1   9 -13   13.60    5.70
   1   9  13   13.56    2.59
  -1   9 -13   15.12    6.76
   1   9  13   23.26    3.86
   3  -9  13    6.75    5.77
  -3  -9 -13   45.50   16.23
  -3  -9 -13    9.17    7.08
  -3  -9 -13    7.46   10.22
  -3  -9 -13    8.69   14.08
   3   9  13    4.63    3.12
  -3   9 -13    8.99    5.06
   3   9  13    4.35    2.08
  -5  -9 -13   10.09    7.81
  -5  -9 -13    3.97   10.88
   5  -9  13   14.61    6.82
  -5  -9 -13   19.27   15.12
  -5  -9 -13    8.35   13.87
   5   9  13    5.44    3.42
   5   9  13    8.44    2.27
   5   9  13    7.87    3.03
  -6 -10  13    4.03    4.42
   6 -10 -13    3.88    8.92
   6 -10 -13   11.92   12.82
  -6 -10  13    2.16    6.39
   6 -10 -13    7.96    5.06
   6  10 -13    5.29    5.48
  -6  10  13    7.38    2.29
   6  10 -13    3.36    2.54
  -6  10  13    9.80    2.71
   4 -10 -13   -5.58   10.22
   4 -10 -13   -6.39   17.54
   4 -10 -13    7.96   16.09
  -4 -10  13    0.75    5.57
   4 -10 -13   -1.05    8.20
  -4 -10  13    8.20    6.14
   4  10 -13    4.27    5.39
  -4  10  13    0.91    2.41
  -4  10  13   -1.45    1.86
  -2 -10  13   -2.14    5.65
   2 -10 -13   -0.38   15.58
   2 -10 -13   -3.32    7.29
   2 -10 -13   10.87   10.91
   2 -10 -13   11.66   17.05
  -2  10  13    0.38    1.87
  -2  10  13    0.16    2.34
   2  10 -13    6.57    5.07
   0 -10 -13   -0.70   14.21
   0 -10 -13   -8.96   16.18
   0 -10 -13   -4.31    9.45
   0 -10 -13   -8.78    6.55
   0 -10  13   13.77    6.79
   0  10  13    1.47    1.99
   0  10 -13    0.04    5.06
   0  10  13    1.91    2.99
  -2 -10 -13  -12.37   13.31
  -2 -10 -13  -11.05    9.58
  -2 -10 -13   -8.15    6.22
   2 -10  13   -0.36    5.64
  -2 -10 -13   10.02   15.83
   2  10  13    0.98    2.05
   2  10  13    3.53    2.95
  -2  10 -13   -0.50    4.87
  -4 -10 -13   23.63   16.32
  -4 -10 -13   17.39    8.35
  -4 -10 -13   10.36   13.59
  -4 -10 -13   16.92   11.26
   4 -10  13   10.18    7.42
   4  10  13    8.03    3.12
   4  10  13    9.33    2.54
   4  10  13   11.46    3.82
   3 -11 -13   14.97   12.77
   3 -11 -13   18.71    9.17
  -1 -11  13    1.84    6.77
   1 -11 -13   -0.59   16.20
   1 -11 -13   -1.28   10.96
   1 -11 -13   -3.00    7.46
   1 -11 -13   14.58   17.50
  -1  11  13    4.68    2.20
   1  11 -13    0.55    5.37
  -1  11  13   -1.68    2.66
  -1 -11 -13   10.62    8.36
  -1 -11 -13  -14.16   15.04
  -1 -11 -13   12.55   11.91
  12   0 -14   43.72   10.74
  12   0 -14   33.55   12.36
 -12   0  14   29.78    4.31
  12   0 -14   47.49    7.39
  10   0 -14    0.65    8.99
 -10   0  14    4.36    2.54
  10   0 -14    2.61    7.37
  10   0 -14    5.30    4.78
 -10   0  14    5.11    5.56
   8   0 -14    9.93    4.83
   8   0 -14    7.36    8.44
  -8   0  14    1.60    5.49
  -8   0  14    8.42    2.95
   8   0 -14   20.67    8.09
   6   0 -14   86.58   15.57
  -6   0  14   74.38   10.57
   6   0 -14  112.55   10.36
   6   0 -14   71.47   11.95
  -6   0  14   99.03    8.54
  -4   0  14  225.34   15.78
   4   0 -14  202.18   18.02
  -4   0  14  225.65   17.10
  -4   0  14  214.40   18.61
   4   0 -14  191.04   23.56
   4   0 -14  252.90   21.51
   2   0 -14    9.60    8.20
  -2   0  14    3.93    2.71
   2   0 -14   -7.85   11.65
  -2   0  14   -3.50    3.73
   2   0 -14   18.17    7.31
  -2   0  14    3.74    1.21
   2   0 -14    4.36    4.06
   2   0 -14   10.73   11.81
   0   0 -14   89.95   18.20
   0   0 -14   93.93   15.29
   0   0  14   97.74    7.13
   0   0 -14   88.49   18.37
   0   0  14   78.19   10.28
   0   0  14   93.97    8.78
   0   0 -14   96.28    9.82
   0   0 -14   96.94   13.76
   2   0  14  147.91   10.12
  -2   0 -14  147.47   22.23
   2   0  14  142.04   12.95
  -2   0 -14  100.18   20.27
  -2   0 -14   99.09   15.86
  -4   0 -14   44.69   16.44
  -4   0 -14   14.95   13.38
   4   0  14   30.61    6.17
  -4   0 -14   52.06   10.03
  -4   0 -14   18.23    9.68
   4   0  14   33.57    3.56
  -6   0 -14    4.73   13.79
   6   0  14    3.37    5.28
   6   0  14    7.80    1.99
  -6   0 -14   15.43   13.65
  -6   0 -14   -1.58    7.50
  -6   0 -14    4.73    8.56
  -8   0 -14   34.55   15.67
   8   0  14   30.84    3.54
  -8   0 -14   33.11   10.01
  -8   0 -14   50.31   17.03
   8   0  14   23.86    7.05
  -8   0 -14   27.33   11.68
 -10   0 -14   16.87   17.87
  10   0  14   21.13    3.13
 -10   0 -14   48.74   17.14
 -10   0 -14   16.40   10.64
 -10   0 -14   23.36   12.72
  11  -1 -14  142.48   19.77
  11  -1 -14  126.65   12.97
  11  -1 -14  154.98   17.43
 -11  -1  14  126.74   10.10
 -11  -1  14  124.19   13.72
 -11   1  14  105.68   10.08
  11   1 -14   99.73   12.29
  11   1 -14  111.28   18.40
  11   1 -14  139.99   17.05
  -9  -1  14  162.73   15.44
  -9  -1  14  148.52   12.36
   9  -1 -14  108.15   17.06
   9  -1 -14  180.94   14.87
   9  -1 -14  131.04   20.51
  -9   1  14  156.81   15.15
   9   1 -14  153.92   19.99
   9   1 -14  161.63   17.32
  -9   1  14  143.89   12.34
   9   1 -14  185.47   14.45
  -7  -1  14   10.30    3.35
  -7  -1  14    1.97    5.34
   7  -1 -14   16.44    7.00
   7  -1 -14   31.27   11.25
   7  -1 -14   15.44    5.18
  -7   1  14   16.46    3.28
   7   1 -14   18.36    9.75
  -7   1  14   10.69    5.32
   7   1 -14    3.00    6.58
   7   1 -14   21.31    5.12
   5  -1 -14    8.04    4.36
  -5  -1  14   12.85    5.35
   5  -1 -14   26.75   10.71
  -5  -1  14   19.40    3.50
   5  -1 -14    4.88    6.77
   5  -1 -14   13.82   12.49
   5   1 -14   15.49    8.53
  -5   1  14   16.76    5.31
  -5   1  14   17.97    2.04
   5   1 -14   21.65    7.56
  -5   1  14   12.88    3.20
   5   1 -14   24.54    5.28
  -3  -1  14  141.31   11.68
   3  -1 -14  134.99   21.30
   3  -1 -14  145.61   13.06
   3  -1 -14  145.27   18.96
   3  -1 -14  103.50   20.13
   3  -1 -14  140.31   16.03
  -3  -1  14  138.06   13.36
  -3   1  14  135.14   11.59
   3   1 -14  122.31   18.42
  -3   1  14  139.66   10.27
   3   1 -14  103.95   15.64
   3   1 -14  174.41   12.91
  -3   1  14  143.03   13.33
   3   1 -14  141.19   21.24
   1  -1 -14  106.38   19.15
   1  -1 -14  118.07   19.88
  -1  -1  14  118.67    8.46
   1  -1 -14  116.66   16.97
   1  -1 -14  130.20   15.11
  -1  -1  14  102.12   10.04
   1  -1 -14  125.72   11.42
  -1  -1  14  106.70   11.61
   1   1 -14  108.32   18.94
   1   1 -14  131.86   11.70
   1   1 -14  115.85   14.42
   1   1 -14  117.80   20.16
  -1   1  14  117.50   10.13
  -1   1  14  106.81   11.44
  -1   1  14  112.93    8.66
   1   1 -14  110.69   17.22
  -1  -1 -14   39.24   13.69
  -1  -1 -14   15.49   11.62
  -1  -1 -14   40.74   11.05
   1  -1  14   30.57    2.89
  -1  -1 -14   33.11    8.82
   1  -1  14   33.00    5.98
  -1   1 -14   31.33    5.41
  -1   1 -14   22.57    7.71
  -1   1 -14   29.12   13.74
   1   1  14   27.24    5.75
   1   1  14   32.11    3.19
   1   1  14   25.55    4.31
  -1   1 -14   23.86   10.29
  -1   1 -14   23.91   12.82
  -3  -1 -14   -4.57   11.67
   3  -1  14   -5.73    4.06
   3  -1  14    0.74    1.16
  -3  -1 -14   -2.86    7.72
  -3  -1 -14    7.45    7.08
  -3  -1 -14    1.24   11.91
  -3   1 -14  -13.47   10.86
  -3   1 -14   -2.32    6.14
   3   1  14    0.34    1.52
  -3   1 -14   -1.31    8.48
  -3   1 -14    8.81   12.69
   3   1  14   -4.29    4.18
   5  -1  14  129.87   12.27
  -5  -1 -14   94.39   20.53
   5  -1  14  126.35    9.01
  -5  -1 -14  117.93   17.87
  -5  -1 -14   90.49   19.97
  -5  -1 -14  121.82   15.93
  -5   1 -14  123.53   15.72
   5   1  14  110.81   11.98
  -5   1 -14   94.02   15.54
   5   1  14  119.04    9.10
  -5   1 -14  106.93   20.63
  -5   1 -14   87.10   20.29
  -7  -1 -14  188.63   18.68
  -7  -1 -14  130.43   23.31
  -7  -1 -14  124.07   19.77
  -7  -1 -14  166.51   24.46
   7  -1  14  157.52   11.01
   7  -1  14  156.53   14.82
   7   1  14  144.41   11.06
  -7   1 -14  114.46   19.00
   7   1  14  129.12   14.27
  -7   1 -14  174.73   25.27
  -7   1 -14  113.35   17.64
  -7   1 -14  113.48   22.69
  -9  -1 -14   15.69   13.77
  -9  -1 -14   29.66   12.20
  -9  -1 -14   21.61   10.18
   9  -1  14   22.60    3.19
  -9  -1 -14   25.35   15.80
  -9   1 -14   26.44    9.81
   9   1  14   28.59    3.37
  -9   1 -14    9.13   13.98
   9   1  14   32.66    7.20
  -9   1 -14   23.92   11.51
  -9   1 -14   31.21   16.16
  12  -2 -14   20.40   10.23
  12  -2 -14   32.94    7.29
  12  -2 -14   26.90   12.33
 -12  -2  14   29.43    3.92
 -12  -2  14   24.75    7.00
  12   2 -14   31.56    9.20
  12   2 -14   30.67    6.07
 -12   2  14   22.64    3.89
  12   2 -14   29.49   11.10
  10  -2 -14   15.85    9.00
 -10  -2  14    1.01    2.49
  10  -2 -14   -3.01    4.77
 -10  -2  14    0.74    5.63
  10  -2 -14    1.63    9.17
  10   2 -14    5.24    4.51
  10   2 -14   -3.71    7.25
 -10   2  14    1.81    2.47
  10   2 -14    3.42    8.27
   8  -2 -14   39.36    6.92
  -8  -2  14   36.14    5.78
  -8  -2  14   28.99    4.32
   8  -2 -14   36.61   11.75
  -8  -2  14   42.16    7.43
   8  -2 -14   38.27    9.53
   8   2 -14   28.13    5.72
   8   2 -14   23.96    9.09
  -8   2  14   33.71    4.48
   8   2 -14   11.74    7.82
  -6  -2  14   67.85    8.33
   6  -2 -14   36.28   15.54
   6  -2 -14   45.45   13.36
   6  -2 -14   61.41   10.69
  -6  -2  14   61.95    6.87
   6  -2 -14   71.50    8.98
  -6  -2  14   56.43    6.70
  -6   2  14   55.43    5.09
   6   2 -14   44.49    6.92
   6   2 -14   68.82   13.41
  -6   2  14   66.65    6.46
   6   2 -14   50.33    9.67
  -6   2  14   66.92    8.65
   4  -2 -14   60.03   10.34
   4  -2 -14   62.91   15.81
  -4  -2  14   50.68    7.27
   4  -2 -14   24.53   13.08
   4  -2 -14   47.61    6.97
   4  -2 -14   31.71   11.22
  -4  -2  14   46.59    5.64
  -4   2  14   52.68    5.88
   4   2 -14   72.42   16.25
  -4   2  14   41.22    6.63
   4   2 -14   46.33   11.34
   4   2 -14   51.16    9.90
  -4   2  14   48.40    4.34
   4   2 -14   41.79    6.29
   2  -2 -14    5.84    7.86
   2  -2 -14    6.44   11.69
   2  -2 -14   -0.43   10.77
   2  -2 -14    3.35    6.26
  -2  -2  14    3.43    2.85
  -2  -2  14    4.58    4.41
   2  -2 -14    5.14    3.91
  -2   2  14    4.20    2.73
   2   2 -14   17.83   11.92
   2   2 -14    7.84    8.22
   2   2 -14   12.97    6.90
  -2   2  14    3.47    1.69
  -2   2  14    3.85    4.09
   0  -2 -14   32.25   11.56
   0  -2  14   32.67    5.99
   0  -2 -14   15.36   12.73
   0  -2 -14   23.14   12.84
   0  -2 -14   31.45    8.94
   0   2  14   35.78    4.85
   0   2 -14   35.84    8.38
   0   2 -14   27.70   12.73
   0   2 -14   43.84    5.50
   0   2 -14   56.56   14.87
   0   2  14   36.73    3.71
   0   2  14   39.56    6.53
   0   2 -14   28.41   10.04
  -2  -2 -14  122.95   20.00
  -2  -2 -14   68.33   13.79
  -2  -2 -14   72.34   11.95
  -2  -2 -14   46.68   16.48
   2  -2  14   92.55   10.74
  -2   2 -14   95.07   19.49
  -2   2 -14   98.79    9.21
  -2   2 -14   90.35   13.24
   2   2  14  102.83    8.88
  -2   2 -14   72.39   17.44
   2   2  14  102.28   10.36
   2   2  14   92.28    7.19
  -2   2 -14   81.32   14.65
  -4  -2 -14   38.22   11.85
  -4  -2 -14   47.43   15.35
   4  -2  14   55.03    8.10
   4  -2  14   53.08    4.48
  -4  -2 -14   53.73   16.14
  -4  -2 -14   38.23   10.19
  -4   2 -14   39.65   15.02
   4   2  14   57.97    6.55
  -4   2 -14   49.77   16.17
   4   2  14   56.58    5.02
  -4   2 -14   60.84   12.06
  -4   2 -14   54.67    9.52
   4   2  14   57.57    7.66
  -6  -2 -14   -3.36    7.55
  -6  -2 -14    7.04   13.43
   6  -2  14   -0.94    5.01
   6  -2  14    0.86    1.66
  -6  -2 -14    7.15    9.04
  -6  -2 -14    4.23   13.57
  -6   2 -14    4.50    8.58
   6   2  14    1.13    4.88
   6   2  14    2.72    1.83
  -6   2 -14  -13.49   10.15
  -6   2 -14    8.83   12.00
  -6   2 -14   -3.52    6.56
   8  -2  14   21.00    7.68
   8  -2  14   13.55    2.51
  -8  -2 -14   22.56   10.91
  -8  -2 -14   17.78   15.24
  -8  -2 -14    0.78   13.16
  -8  -2 -14   -1.49    8.51
   8   2  14   22.13    2.89
   8   2  14   12.37    6.37
  -8   2 -14   29.42   15.75
  -8   2 -14    8.75   13.97
  -8   2 -14    7.38    8.21
  -8   2 -14   19.97   10.62
  10  -2  14   63.06    6.07
 -10  -2 -14   54.87   20.03
 -10  -2 -14   62.46   15.27
 -10  -2 -14   67.67   13.57
 -10  -2 -14   23.23   18.64
  10  -2  14   70.74   10.30
 -10   2 -14   74.01   14.76
 -10   2 -14   58.26   19.52
  10   2  14   70.24    6.22
 -10   2 -14   45.14   16.92
  11  -3 -14   63.04   11.53
 -11  -3  14   46.01    4.95
  11  -3 -14   45.53    8.16
  11  -3 -14   42.23   13.10
 -11  -3  14   51.06    8.47
  11   3 -14   38.39   11.69
  11   3 -14   47.67    6.83
 -11   3  14   41.43    5.06
  11   3 -14   42.38    9.46
   9  -3 -14  134.12   13.61
  -9  -3  14  137.57   12.21
  -9  -3  14  132.48   10.81
  -9  -3  14  107.14   13.77
   9  -3 -14  173.03   21.27
   9  -3 -14  140.23   17.14
   9   3 -14  115.57   12.05
  -9   3  14  129.07   10.79
   9   3 -14  130.22   18.55
   9   3 -14  132.87   15.69
   7  -3 -14    8.62    5.06
  -7  -3  14    7.45    3.82
   7  -3 -14    4.02    9.73
  -7  -3  14    1.13    4.86
   7  -3 -14    9.08    7.52
  -7  -3  14   11.92    3.29
   7  -3 -14   -1.91   13.72
   7   3 -14    9.06    6.40
   7   3 -14    4.14    4.26
   7   3 -14   11.18    8.58
  -7   3  14   13.39    2.93
  -7   3  14    8.51    2.00
  -7   3  14    9.17    5.24
   5  -3 -14   31.11   11.13
   5  -3 -14   33.69    9.09
   5  -3 -14   29.31   14.88
  -5  -3  14   38.25    4.80
  -5  -3  14   29.87    6.42
   5  -3 -14   49.18   15.56
   5  -3 -14   30.94    6.31
   5   3 -14   32.85    8.61
  -5   3  14   37.32    4.74
  -5   3  14   45.05    6.60
  -5   3  14   37.78    3.77
   5   3 -14   38.43    5.82
   5   3 -14   24.92    9.31
   3  -3 -14   23.02   10.09
   3  -3 -14   23.98    5.35
   3  -3 -14   22.34    7.79
   3  -3 -14   32.30   13.64
  -3  -3  14   22.15    5.95
   3  -3 -14   16.84   12.49
  -3  -3  14   17.59    3.93
   3   3 -14   23.39    4.73
  -3   3  14   21.11    3.92
   3   3 -14   33.09    8.64
   3   3 -14   25.07    9.56
  -3   3  14   33.25    5.65
  -3   3  14   27.84    3.13
   3   3 -14   27.47   12.94
   1  -3 -14   21.95   10.79
   1  -3 -14   12.18   12.54
   1  -3 -14   21.28   14.35
   1  -3 -14   37.77    8.46
  -1  -3  14   34.39    6.54
   1   3 -14   29.17    4.65
   1   3 -14   37.20   13.07
   1   3 -14   43.33   11.00
  -1   3  14   25.34    4.30
   1   3 -14   27.34    8.07
  -1   3  14   42.53    6.11
  -1   3  14   25.17    3.26
  -1  -3 -14   39.70   11.77
   1  -3  14   53.33    7.81
  -1  -3 -14   39.87   14.56
  -1  -3 -14   46.80   10.01
  -1  -3 -14   40.48   14.31
  -1   3 -14   70.28   10.64
   1   3  14   52.61    4.95
  -1   3 -14   43.66   11.10
   1   3  14   65.77    7.66
  -1   3 -14   57.90    7.09
   1   3  14   61.85    6.63
  -1   3 -14   86.39   17.72
  -3  -3 -14   -5.41    8.28
  -3  -3 -14    8.62    6.94
   3  -3  14    6.18    4.82
  -3  -3 -14   -4.25   12.66
  -3  -3 -14  -11.41   11.86
   3   3  14   -0.32    2.84
  -3   3 -14   -2.44   10.49
   3   3  14   -7.29    4.36
  -3   3 -14   -6.44    5.91
   3   3  14   -0.07    1.57
  -3   3 -14   -3.87    7.12
  -3   3 -14    6.64   13.14
  -5  -3 -14   40.36   15.93
  -5  -3 -14   34.00    9.73
  -5  -3 -14   54.00   16.25
   5  -3  14   41.26    7.54
  -5  -3 -14   40.30   12.08
   5   3  14   44.93    6.97
  -5   3 -14   35.03   14.18
  -5   3 -14   26.35    8.36
   5   3  14   43.75    4.32
  -5   3 -14   37.33   16.18
   5   3  14   38.12    6.12
  -5   3 -14   35.14   10.41
  -7  -3 -14   50.48   17.32
  -7  -3 -14   75.68   12.60
   7  -3  14   88.05   11.50
  -7  -3 -14   40.46   16.71
  -7  -3 -14   67.17   15.76
  -7   3 -14   63.15   10.95
   7   3  14   84.16    6.80
  -7   3 -14   71.93   18.27
   7   3  14  100.44    8.84
  -7   3 -14   59.68   17.12
   7   3  14   92.98   10.88
  -7   3 -14   70.14   13.47
  -9  -3 -14   38.70   17.28
   9  -3  14   27.08    3.25
  -9  -3 -14   24.12   12.59
  -9  -3 -14   41.31   17.62
  -9  -3 -14   47.17   11.38
   9  -3  14   16.76    7.29
  -9   3 -14   31.22   16.01
  -9   3 -14    0.51   15.02
   9   3  14   28.99    3.46
  -9   3 -14   28.64   11.36
 -10  -4  14   -3.52    4.52
  10  -4 -14   11.51   11.58
  10  -4 -14    2.71    8.09
 -10  -4  14    5.28    2.76
 -10  -4  14    3.06    5.60
  10  -4 -14    5.83    5.53
 -10   4  14    4.00    2.68
  10   4 -14   -3.52    6.61
  10   4 -14   10.71    4.41
  10   4 -14   -6.34    7.76
   8  -4 -14    7.63    8.00
   8  -4 -14   -2.23    4.61
   8  -4 -14    2.44    9.63
  -8  -4  14   -5.47    5.15
  -8  -4  14   -0.96    2.85
  -8  -4  14    4.28    3.81
   8   4 -14    7.84    6.43
  -8   4  14    1.98    2.42
   8   4 -14    4.20    8.60
  -8   4  14   -0.44    1.75
   8   4 -14   -5.88    3.56
   6  -4 -14   37.71    6.94
  -6  -4  14   31.85    6.99
  -6  -4  14   32.25    5.00
   6  -4 -14   29.60   14.88
   6  -4 -14   34.91   12.48
   6  -4 -14   35.14    9.11
  -6  -4  14   37.21    4.75
   6   4 -14   55.32    9.67
  -6   4  14   32.83    6.28
   6   4 -14   34.12   10.44
  -6   4  14   33.68    4.57
  -6   4  14   31.44    3.83
   6   4 -14   44.32    5.61
   4  -4 -14    6.78    4.29
   4  -4 -14   10.23    8.26
  -4  -4  14    7.62    5.38
   4  -4 -14   17.05   12.73
  -4  -4  14    8.52    3.10
   4  -4 -14    7.94    6.83
   4  -4 -14    9.05   13.03
  -4   4  14   13.64    3.27
  -4   4  14   10.56    4.65
   4   4 -14    3.27    7.93
   4   4 -14   15.66    7.10
   4   4 -14   14.05    3.74
  -4   4  14    9.64    2.01
   2  -4 -14    7.43   12.43
  -2  -4  14    7.92    3.17
  -2  -4  14    8.85    5.17
   2  -4 -14    8.51    9.05
   2  -4 -14    4.22    6.61
   2  -4 -14   28.06   13.54
   2   4 -14    8.50    6.13
  -2   4  14    7.75    4.43
  -2   4  14    7.97    1.96
   2   4 -14    8.99    3.49
  -2   4  14    6.29    3.05
   2   4 -14    7.29    7.55
   0  -4  14   11.52    5.24
   0  -4 -14  -10.49   13.46
   0  -4 -14   -5.24   11.79
   0  -4 -14   13.99    7.41
   0  -4 -14   10.53    9.24
   0   4 -14    8.60    7.89
   0   4  14   11.99    4.78
   0   4  14   11.63    2.13
   0   4  14   10.12    3.23
   0   4 -14   13.54   11.63
   0   4 -14   16.22    6.99
  -2  -4 -14   39.30   16.66
   2  -4  14   54.87    8.24
  -2  -4 -14   37.08    9.63
  -2  -4 -14   59.27   17.10
  -2  -4 -14   29.18   11.64
  -2   4 -14   39.11   14.00
  -2   4 -14   74.77   12.30
   2   4  14   69.47    5.42
   2   4  14   69.26    6.95
   2   4  14   66.26    8.67
  -2   4 -14   63.57   10.30
   4  -4  14   -1.18    7.39
  -4  -4 -14    3.16    7.72
  -4  -4 -14  -11.50   13.08
  -4  -4 -14    6.85    9.88
  -4  -4 -14    3.03   13.16
   4   4  14    3.20    1.85
  -4   4 -14   15.99   12.05
  -4   4 -14    0.61    7.51
   4   4  14   -0.60    4.67
   4   4  14   -0.90    2.68
  -4   4 -14    7.36   10.49
  -4   4 -14   10.19    6.97
  -6  -4 -14   11.36   14.04
  -6  -4 -14   22.28   14.68
  -6  -4 -14    7.64    7.99
   6  -4  14   10.44    5.91
  -6  -4 -14    5.30    9.82
  -6   4 -14    4.51    8.29
  -6   4 -14    4.35    7.02
   6   4  14    2.05    1.90
   6   4  14    6.01    3.49
  -6   4 -14  -14.20   11.20
  -6   4 -14    6.98   14.14
  -8  -4 -14   19.73   17.01
   8  -4  14    0.67    6.27
  -8  -4 -14   -7.37   14.54
  -8  -4 -14   -7.53    9.58
  -8  -4 -14  -14.25    8.44
  -8   4 -14  -12.97   14.52
  -8   4 -14   17.46   13.94
  -8   4 -14   16.30   12.12
   8   4  14    7.77    3.79
   8   4  14    3.17    2.23
  -8   4 -14    3.45    8.75
  -9  -5  14    4.83    4.26
   9  -5 -14   -6.21    7.96
  -9  -5  14    2.92    3.06
   9  -5 -14   19.84   10.90
  -9  -5  14    3.98    5.51
   9  -5 -14   -1.83    5.24
   9   5 -14   -9.01    7.11
   9   5 -14   -0.09    3.98
  -9   5  14    0.74    2.72
   9   5 -14   -1.68    6.15
  -9   5  14    2.53    1.98
   7  -5 -14    2.06   14.38
   7  -5 -14   -1.63    7.24
  -7  -5  14    0.77    5.32
   7  -5 -14    3.08    4.95
  -7  -5  14    2.59    3.65
   7  -5 -14   11.48    9.92
  -7  -5  14   14.30    3.48
   7   5 -14    9.05    3.68
  -7   5  14    5.90    1.98
  -7   5  14    1.14    2.31
   7   5 -14    3.45    7.85
   7   5 -14    9.49    6.60
  -5  -5  14    5.19    4.59
   5  -5 -14    6.16    7.39
   5  -5 -14  -11.03   13.12
   5  -5 -14   -0.39    8.84
  -5  -5  14   -0.15    2.93
   5  -5 -14    8.56    4.67
   5  -5 -14    0.84   13.51
  -5   5  14    3.85    1.80
  -5   5  14    4.49    2.54
   5   5 -14    4.00    5.91
   5   5 -14   -7.07    7.28
   5   5 -14    8.56    3.25
  -3  -5  14    3.74    3.17
   3  -5 -14   -3.98    6.50
   3  -5 -14   -2.44   12.52
   3  -5 -14    4.19    9.24
   3  -5 -14   15.59   14.38
  -3   5  14    7.00    4.38
   3   5 -14    2.17    6.34
  -3   5  14    1.70    1.73
  -3   5  14    4.34    2.78
   3   5 -14   -9.42    7.07
   1  -5 -14   10.09    6.54
   1  -5 -14   17.03   13.77
   1  -5 -14   -0.13    8.50
   1  -5 -14   -2.33   11.61
   1   5 -14    2.14    6.21
  -1   5  14    2.21    1.73
   1   5 -14    8.80    7.88
  -1   5  14    4.83    2.71
  -1   5  14   -1.42    4.34
  -1  -5 -14   -4.63   12.36
  -1  -5 -14    2.69    9.16
  -1  -5 -14    2.96    7.10
  -1  -5 -14    7.76   13.35
   1   5  14   -3.44    2.45
  -1   5 -14    2.97    5.93
   1   5  14   -1.33    1.66
  -1   5 -14   -1.06   10.69
  -1   5 -14    4.78    7.57
   1   5  14    4.99    4.40
  -3  -5 -14   -4.14    6.91
   3  -5  14    0.15    5.26
  -3  -5 -14   15.46   13.26
  -3  -5 -14   10.84    9.85
  -3  -5 -14    9.51   12.96
  -3   5 -14   -1.52   12.14
   3   5  14   -4.62    2.75
   3   5  14    4.52    4.56
  -3   5 -14  -10.57    7.26
  -3   5 -14   -0.52    5.83
   3   5  14    2.85    1.74
  -5  -5 -14   -1.25    8.69
  -5  -5 -14    1.71    7.44
  -5  -5 -14   13.95   14.38
  -5  -5 -14  -17.84   13.00
   5  -5  14   -2.77    5.56
  -5   5 -14    1.89    8.03
   5   5  14    3.79    1.91
  -5   5 -14   -5.51    6.08
   5   5  14    1.85    3.14
  -5   5 -14   15.66   12.61
  -7  -5 -14  -20.40   14.06
   7  -5  14   -4.94    5.77
  -7  -5 -14    3.89    8.15
  -7  -5 -14   29.48   16.16
  -7  -5 -14    1.89   10.03
   7   5  14    0.91    3.22
   7   5  14    0.69    1.91
  -7   5 -14    1.93    8.37
  -7   5 -14    5.68    7.73
  -7   5 -14   -0.10   16.95
  -7   5 -14   -3.62   13.37
 -10  -6  14    5.24    5.10
  10  -6 -14    4.72   11.93
  10  -6 -14   -8.89    8.36
  10  -6 -14    6.72    6.01
 -10  -6  14   -4.37    6.48
  10   6 -14   -0.41    6.57
  10   6 -14    4.69    7.86
  10   6 -14    0.90    3.99
 -10   6  14   -1.95    2.50
  -8  -6  14    6.82    4.57
   8  -6 -14   13.62    5.78
  -8  -6  14   14.56    3.57
  -8  -6  14   21.41    6.54
   8  -6 -14   19.59    9.12
   8  -6 -14    8.52   10.40
  -8   6  14   12.76    3.19
   8   6 -14   10.44    8.84
   8   6 -14   17.71    7.42
  -8   6  14   10.36    2.47
   6  -6 -14   43.39    7.64
   6  -6 -14   30.39   15.87
   6  -6 -14   30.46   11.58
  -6  -6  14   43.52    5.35
   6  -6 -14   44.45   10.66
  -6  -6  14   45.55    7.94
   6  -6 -14   29.26   16.39
  -6   6  14   36.33    5.06
   6   6 -14   62.51   11.92
  -6   6  14   42.33    4.51
   6   6 -14   54.69    9.92
   4  -6 -14    0.31    4.25
  -4  -6  14    2.20    4.76
   4  -6 -14  -11.34   13.05
   4  -6 -14   -9.35    8.33
   4  -6 -14    4.51    7.74
  -4  -6  14   -5.36    3.04
   4  -6 -14    5.15   15.05
   4   6 -14    2.60    6.49
  -4   6  14   -1.28    1.69
   4   6 -14   -9.00    7.08
  -4   6  14    2.57    2.56
   2  -6 -14   -7.61    8.35
   2  -6 -14    5.21   13.26
  -2  -6  14    0.58    5.24
   2  -6 -14    8.37   14.28
   2  -6 -14   -9.15    6.43
  -2   6  14   -4.16    1.54
  -2   6  14    7.00    2.78
   2   6 -14    7.88    6.19
   2   6 -14   -6.13    7.11
   0  -6 -14  -21.27   12.21
   0  -6 -14    4.29    7.07
   0  -6  14    5.05    4.99
   0  -6 -14   -2.18   13.33
   0  -6 -14   -1.18    8.57
   0   6  14   -4.30    4.30
   0   6 -14    0.25    5.96
   0   6 -14   13.68    7.89
   0   6  14   -2.92    2.62
   0   6  14   -1.08    1.62
  -2  -6 -14    9.57   10.41
  -2  -6 -14   34.30   14.43
  -2  -6 -14   21.15   15.38
  -2  -6 -14   20.30    8.71
   2  -6  14   28.87    7.10
   2   6  14   25.10    4.59
  -2   6 -14   40.36    9.52
  -2   6 -14   36.77    7.55
  -2   6 -14   35.66   14.23
   2   6  14   28.95    7.39
   2   6  14   27.49    3.35
   4  -6  14   11.16    5.85
  -4  -6 -14  -10.02   14.12
  -4  -6 -14   14.04    8.07
  -4  -6 -14    6.58   14.47
  -4  -6 -14   19.07   11.14
  -4   6 -14    9.64    8.11
   4   6  14    5.60    2.06
  -4   6 -14    7.38    6.46
   4   6  14    8.72    3.69
  -4   6 -14    1.53   12.95
  -6  -6 -14    8.41    8.35
  -6  -6 -14   23.73   15.95
  -6  -6 -14  -10.79    9.18
  -6  -6 -14    5.54   14.86
   6  -6  14    6.94    6.50
  -6   6 -14   -2.93   13.63
   6   6  14    0.51    1.98
  -6   6 -14    4.76    6.76
  -6   6 -14    6.00    8.23
   6   6  14    2.05    3.57
  -9  -7  14   28.30    5.92
   9  -7 -14   14.50    6.40
   9   7 -14   24.42    9.80
   9   7 -14   28.40    7.54
   7  -7 -14   28.37    9.89
   7  -7 -14   21.87    6.54
  -7  -7  14   26.83    6.16
   7  -7 -14   21.04   11.13
  -7  -7  14   12.85    6.70
  -7  -7  14   19.96    5.21
   7   7 -14   13.88    7.08
   7   7 -14   14.89    3.18
  -7   7  14   21.26    2.98
  -7   7  14   15.12    3.37
   7   7 -14   20.97    8.23
   5  -7 -14   10.12   10.32
  -5  -7  14    3.01    3.34
   5  -7 -14    2.67   14.97
  -5  -7  14    4.59    5.68
   5  -7 -14   13.16   15.14
   5  -7 -14    0.69    7.60
   5  -7 -14   -2.35    4.58
  -5   7  14    2.21    2.80
  -5   7  14    0.46    1.76
   5   7 -14    0.84    2.22
   5   7 -14   12.45    7.51
   5   7 -14    1.08    5.94
   3  -7 -14   37.01   16.07
   3  -7 -14   34.84    9.91
   3  -7 -14   42.02   16.66
  -3  -7  14   31.65    7.47
  -3  -7  14   31.19    5.06
   3  -7 -14   23.62   11.13
  -3   7  14   39.99    4.24
   3   7 -14   40.47    8.36
   3   7 -14   41.24    9.67
  -3   7  14   37.07    4.91
   1  -7 -14   59.15   10.93
   1  -7 -14   69.61   15.61
   1  -7 -14   60.36   16.99
   1  -7 -14   60.75   17.48
  -1  -7  14   85.12   10.71
   1   7 -14   57.80    9.70
  -1   7  14   70.35    7.02
   1   7 -14   75.11   11.97
  -1   7  14   64.43    5.99
  -1  -7 -14    0.04    7.55
  -1  -7 -14    1.41    9.95
   1  -7  14    3.10    5.41
  -1  -7 -14    2.55   13.15
  -1  -7 -14  -14.42   13.75
  -1   7 -14   11.87    6.46
   1   7  14    8.21    3.06
   1   7  14    6.62    2.12
  -1   7 -14   13.48    7.80
  -3  -7 -14   36.76    9.91
   3  -7  14   40.90    7.71
  -3  -7 -14   25.36   15.84
  -3  -7 -14   -8.02   14.69
  -3  -7 -14   26.22   12.41
  -3   7 -14   43.70    7.82
   3   7  14   36.90    4.18
   3   7  14   33.88    5.27
  -3   7 -14   32.64    9.07
  -5  -7 -14   -3.43   14.18
   5  -7  14   20.57    7.26
  -5  -7 -14   29.55   12.59
  -5  -7 -14    9.06    9.13
  -5  -7 -14   12.01   14.82
  -5   7 -14   18.18    6.87
  -5   7 -14   29.06    8.31
  -5   7 -14   30.56   16.34
   5   7  14   22.32    3.31
   5   7  14   23.42    4.62
  -6  -8  14   96.72   11.99
   6  -8 -14   99.06   12.29
   6  -8 -14   88.58   19.92
   6  -8 -14  122.82   16.80
   6  -8 -14   66.35   15.74
  -6   8  14  101.05    8.79
  -6   8  14   94.75    8.06
   6   8 -14   79.47    8.16
   6   8 -14  110.12   13.33
   6   8 -14  140.24   16.19
  -4  -8  14   38.63    7.90
   4  -8 -14   30.55   11.91
   4  -8 -14   43.71   17.94
   4  -8 -14   39.87    7.28
   4  -8 -14   44.42   17.64
   4  -8 -14   22.44    9.74
  -4  -8  14   40.32    5.41
  -4   8  14   33.04    4.10
   4   8 -14   44.50    9.91
  -4   8  14   26.95    4.58
   4   8 -14   41.84    8.22
   4   8 -14   38.81    4.50
   2  -8 -14   -5.59    7.63
   2  -8 -14   23.26   16.12
  -2  -8  14   12.84    6.10
   2  -8 -14    5.37   15.26
   2  -8 -14   -1.29    9.93
   2   8 -14    9.52    5.89
  -2   8  14    0.78    1.85
   2   8 -14    4.05    7.03
  -2   8  14    2.87    2.90
   0  -8 -14   14.95   10.94
   0  -8 -14    9.26   15.66
   0  -8 -14   12.71    8.44
   0  -8 -14    6.94   14.72
   0  -8  14   20.74    6.74
   0   8 -14   21.82    7.00
   0   8  14   24.72    3.14
   0   8 -14   31.79    8.25
   0   8  14   18.31    4.11
  -2  -8 -14   62.32   19.10
  -2  -8 -14   92.98   17.63
   2  -8  14  102.45   12.49
  -2  -8 -14   79.97   14.00
   2   8  14  100.80    8.24
  -2   8 -14  116.67   14.16
   2   8  14   89.70    9.35
  -2   8 -14  109.28   12.71
  -4  -8 -14   52.33   17.93
  -4  -8 -14   34.15   14.78
  -4  -8 -14   18.30    9.82
  -4  -8 -14   32.24   15.10
   4  -8  14   33.04    8.38
   4   8  14   35.23    5.41
   4   8  14   36.11    4.23
  -4   8 -14   33.27    7.28
  -4   8 -14   38.44    8.71
   5  -9 -14    3.18    5.09
   5  -9 -14   -1.09   11.28
   5  -9 -14    4.29    8.60
   5  -9 -14  -12.63   17.16
  -5   9  14    1.24    2.78
  -5   9  14    3.75    2.24
   5   9 -14    2.12    6.09
   5   9 -14    6.70    7.03
   5   9 -14    4.03    3.96
  -3  -9  14   42.70    9.06
   3  -9 -14   50.16   11.79
   3  -9 -14   49.58   19.59
   3  -9 -14   52.45   15.08
   3  -9 -14   71.53   19.56
   3   9 -14   69.62   11.22
  -3   9  14   51.41    5.47
   3   9 -14   57.06    9.48
  -3   9  14   61.48    6.53
   1  -9 -14   66.52   16.76
   1  -9 -14   83.15   13.80
   1  -9 -14   77.22   21.00
  -1  -9  14  113.07   13.91
   1  -9 -14   55.68   19.65
  -1   9  14   99.54    9.26
   1   9 -14  100.96   12.99
   1   9 -14  119.70   15.21
  -1   9  14  111.72    8.40
   1  -9  14   16.60    7.08
  -1  -9 -14   27.74   12.77
  -1  -9 -14    0.88   16.30
  -1  -9 -14   -8.24   15.49
  -1  -9 -14    8.23    8.26
  -1   9 -14   16.38    6.71
  -1   9 -14    8.18    7.37
   1   9  14   18.02    2.81
   1   9  14   13.33    3.74
  -3  -9 -14    1.04   15.54
  -3  -9 -14    3.61    8.10
  -3  -9 -14   18.15   15.84
  -3  -9 -14   -3.28   11.00
  -3   9 -14    7.73    6.13
   3   9  14   12.27    3.58
 -10   0  15    8.43    6.01
 -10   0  15   -4.19    2.66
  10   0 -15   -2.44    8.64
  10   0 -15   -4.84    6.96
  10   0 -15    0.00    5.27
   8   0 -15   -0.08    8.74
   8   0 -15    2.95    4.82
  -8   0  15   -0.23    5.81
   8   0 -15   -2.69    7.58
  -8   0  15    0.17    2.93
  -6   0  15    2.26    2.96
  -6   0  15   -7.39    4.77
   6   0 -15    0.59    9.26
   6   0 -15   -6.89    6.20
   6   0 -15   -5.17    4.43
   4   0 -15   -1.99    6.68
   4   0 -15    2.25    4.42
   4   0 -15   -2.03   12.96
  -4   0  15    5.47    2.95
   4   0 -15   -1.94    8.44
   2   0 -15    4.92   12.50
  -2   0  15   -1.49    2.67
   2   0 -15    1.97    4.35
   2   0 -15    7.27    9.14
   2   0 -15   -7.96    6.44
   2   0 -15    2.37   13.96
  -2   0  15   -4.84    4.78
   0   0 -15    4.72    4.69
   0   0 -15    2.27   10.67
   0   0  15   -2.53    1.20
   0   0  15   -3.34    2.68
   0   0 -15   -0.60    8.74
   0   0  15   -7.15    4.63
   0   0 -15   -0.95    7.14
   0   0 -15    5.57   11.68
   2   0  15   -0.09    2.32
  -2   0 -15   14.27   13.89
  -2   0 -15    6.92   13.40
  -2   0 -15   -7.33    7.20
   2   0  15   -4.03    2.66
  -2   0 -15    9.02    8.65
   2   0  15   -5.06    4.49
   4   0  15    1.73    5.27
  -4   0 -15   -4.26   11.90
   4   0  15   -1.11    1.72
  -4   0 -15   13.13    8.42
  -4   0 -15    2.44    8.60
  -4   0 -15   -2.20   13.40
   6   0  15   -7.91    5.91
  -6   0 -15   -0.10    8.77
   6   0  15   -0.68    1.93
  -6   0 -15   15.82   15.05
  -6   0 -15    2.45    9.78
  -6   0 -15   -5.07   13.50
   8   0  15   -4.90    7.10
   8   0  15   -1.04    2.17
  -8   0 -15    4.76   10.93
  -8   0 -15  -10.27   10.15
  -8   0 -15  -22.62   12.89
  -8   0 -15    6.51   15.66
   9  -1 -15   13.89    7.72
   9  -1 -15   12.34   10.68
   9  -1 -15    7.88    5.63
  -9  -1  15   13.50    3.54
  -9  -1  15    4.41    6.14
   9   1 -15   29.92   10.21
   9   1 -15   -0.72    8.09
  -9   1  15   13.48    3.31
   9   1 -15   14.65    5.29
  -9   1  15   15.46    6.47
   7  -1 -15   11.66    9.73
  -7  -1  15   10.34    3.30
   7  -1 -15   15.40    8.31
   7  -1 -15    9.31    5.28
  -7  -1  15   24.71    6.44
   7   1 -15   20.67   10.78
  -7   1  15   15.11    3.45
  -7   1  15   16.10    6.33
   7   1 -15    9.71    7.32
   7   1 -15    4.89    4.97
  -5  -1  15    9.08    3.32
  -5  -1  15   21.35    6.12
   5  -1 -15   33.78   14.97
   5  -1 -15   13.74   10.07
   5  -1 -15   20.40    5.29
   5  -1 -15    7.66    6.99
  -5   1  15    5.90    9.34
   5   1 -15    8.57    9.56
  -5   1  15    8.84    3.34
   5   1 -15   14.26    4.91
  -5   1  15    9.00    1.92
   5   1 -15    6.14    7.44
   3  -1 -15   11.59    6.98
   3  -1 -15    1.24   12.25
   3  -1 -15   18.10    5.39
  -3  -1  15   11.97    3.46
   3  -1 -15   21.51   14.37
   3  -1 -15    8.68    9.44
  -3   1  15   10.62    3.49
  -3   1  15   12.43    5.16
   3   1 -15   17.94    5.23
   3   1 -15    9.93   12.55
   3   1 -15   17.83    9.79
   3   1 -15    9.72    7.49
  -3   1  15   14.78    2.04
   1  -1 -15    5.61    7.22
   1  -1 -15   -8.61   11.54
   1  -1 -15    2.56    4.56
  -1  -1  15    2.69    3.04
   1  -1 -15   11.76   12.97
  -1  -1  15    0.00    5.05
   1  -1 -15   -4.55    7.98
  -1   1  15    1.96    1.93
   1   1 -15    4.05    7.05
  -1   1  15    2.96    4.97
  -1   1  15    3.98    3.17
   1   1 -15   -1.49    8.51
   1   1 -15   13.15    4.86
   1   1 -15    2.87   11.59
  -1  -1 -15   -1.79    7.72
   1  -1  15    6.07    3.13
  -1  -1 -15  -13.09   12.72
   1  -1  15    1.30    4.92
  -1  -1 -15   -3.59    8.05
  -1  -1 -15   -6.16   13.41
   1   1  15   12.50    4.93
  -1   1 -15    2.17    4.60
  -1   1 -15  -13.94   12.05
  -1   1 -15    3.44    7.29
   1   1  15    2.76    1.77
   1   1  15    4.32    3.06
  -1   1 -15    7.68   11.44
  -1   1 -15   -3.95    8.01
  -3  -1 -15    1.53   12.03
  -3  -1 -15    9.43   13.94
  -3  -1 -15  -12.90    7.96
   3  -1  15  -11.53    4.74
  -3  -1 -15   -5.24    8.03
  -3   1 -15  -11.83   11.91
   3   1  15   -2.56    1.69
   3   1  15    4.79    3.27
  -3   1 -15  -20.84   12.10
   3   1  15    9.43    5.33
  -3   1 -15  -11.88    8.13
  -3   1 -15   -2.89    6.83
  -5  -1 -15    7.03    8.86
   5  -1  15    7.92    2.00
  -5  -1 -15    7.69   14.32
  -5  -1 -15  -11.36   12.81
  -5  -1 -15    0.91    9.66
  -5   1 -15   16.54   10.14
  -5   1 -15   29.37   15.37
  -5   1 -15    1.00    7.91
   5   1  15    4.62    2.08
  -5   1 -15   23.41   15.07
   5   1  15    3.95    5.84
   7  -1  15   29.74    7.70
  -7  -1 -15   10.23   10.51
  -7  -1 -15    7.41   15.36
  -7  -1 -15  -11.85   13.82
   7  -1  15   26.04    3.09
  -7  -1 -15   16.74   11.77
  -7   1 -15   34.39   11.85
  -7   1 -15    1.66   13.33
  -7   1 -15   -0.50   14.16
  -7   1 -15   21.17    9.74
   7   1  15   24.41    3.22
   7   1  15   21.51    7.25
 -10  -2  15   10.60    3.20
 -10  -2  15   12.15    6.59
  10  -2 -15   26.16    9.72
  10  -2 -15   -4.44    9.98
  10  -2 -15   16.08    6.19
  10   2 -15    7.61    9.02
  10   2 -15   13.19    5.48
 -10   2  15   15.61    3.45
  10   2 -15    7.31    8.20
  -8  -2  15   75.41   10.21
   8  -2 -15   76.18   12.75
  -8  -2  15   72.25    7.92
   8  -2 -15   60.34   14.53
   8  -2 -15   85.07   10.77
   8   2 -15   71.24   11.86
  -8   2  15   61.73    9.35
  -8   2  15   71.96    7.65
   8   2 -15  112.74   17.09
   8   2 -15   86.81   10.17
   6  -2 -15   15.68    7.42
   6  -2 -15   17.40    9.81
   6  -2 -15   11.99   14.23
   6  -2 -15   11.73    5.52
  -6  -2  15   16.13    3.66
  -6  -2  15   19.76    6.36
  -6  -2  15   15.59    4.55
   6   2 -15   25.84    5.47
  -6   2  15   16.45    6.06
  -6   2  15   11.04    2.10
  -6   2  15    7.85    3.17
   6   2 -15    9.62    9.75
   6   2 -15   17.53    7.93
   4  -2 -15   -2.93    8.34
  -4  -2  15    0.96    3.02
  -4  -2  15    3.44    4.97
   4  -2 -15   -2.86    4.40
   4  -2 -15    4.36    7.37
   4  -2 -15   -0.89   13.42
  -4   2  15   -7.95    4.69
   4   2 -15    9.81    4.58
  -4   2  15   -0.43    2.80
   4   2 -15   -1.20    6.35
  -4   2  15   -2.39    1.52
   4   2 -15   14.25    8.71
  -2  -2  15   -1.56    2.90
   2  -2 -15   -4.64    8.55
   2  -2 -15    2.80   12.41
   2  -2 -15    9.89    4.68
   2  -2 -15  -26.07   11.58
   2  -2 -15   -3.72    7.16
   2   2 -15   -6.54    8.11
  -2   2  15    5.29    4.98
  -2   2  15    0.51    1.59
   2   2 -15    4.90    7.23
  -2   2  15    4.65    3.15
   2   2 -15   -2.61    4.28
   2   2 -15   12.47   12.79
   0  -2  15   33.53    4.95
   0  -2 -15   18.76   10.86
   0  -2 -15   31.65   14.91
   0  -2 -15   29.67   14.68
   0  -2 -15   50.93   10.81
   0  -2  15   33.52    9.34
   0   2 -15   22.38    8.50
   0   2  15   26.78    4.80
   0   2  15   42.17    7.08
   0   2 -15   38.27   11.03
   0   2  15   41.39    3.87
   0   2 -15   28.58   14.31
   0   2 -15   46.84    6.58
  -2  -2 -15   25.17   14.15
  -2  -2 -15   25.17    9.22
  -2  -2 -15   14.91   14.33
  -2  -2 -15   19.29   10.05
   2   2  15   17.17    2.68
  -2   2 -15   23.87   16.18
   2   2  15   22.46    4.46
  -2   2 -15   21.01   10.05
  -2   2 -15   28.16   14.87
  -2   2 -15   35.91    8.93
  -2   2 -15   16.97    5.26
   2   2  15   21.22    5.82
  -4  -2 -15   26.87   14.42
   4  -2  15   -3.70    5.80
  -4  -2 -15    1.01   12.91
  -4  -2 -15    1.09   10.15
  -4  -2 -15   16.78    9.25
  -4   2 -15   -0.98   12.08
  -4   2 -15   -6.77    8.63
   4   2  15    2.71    3.29
   4   2  15    3.61    5.55
   4   2  15    1.20    1.90
  -4   2 -15    5.74    7.84
  -6  -2 -15    8.61    9.48
  -6  -2 -15  -12.27   13.84
   6  -2  15   10.41    6.62
  -6  -2 -15    5.84   15.73
  -6  -2 -15   -0.31   10.13
  -6   2 -15    6.06    9.85
  -6   2 -15    9.09    8.44
  -6   2 -15    5.79   13.56
   6   2  15    3.32    3.54
   6   2  15    3.63    5.92
   6   2  15    4.72    2.20
  -6   2 -15   21.53   16.86
   9  -3 -15   25.83    6.53
   9  -3 -15    9.70   12.05
  -9  -3  15   25.44    6.84
   9  -3 -15   25.18    9.44
  -9  -3  15   18.92    3.83
   9   3 -15   18.16    8.65
   9   3 -15   17.55   10.63
  -9   3  15   16.18    3.59
   9   3 -15    9.53    5.10
   7  -3 -15    6.58   10.94
   7  -3 -15    1.47    5.12
  -7  -3  15    3.34    6.32
  -7  -3  15    7.41    4.20
   7  -3 -15   -1.30    6.59
  -7  -3  15    5.71    3.21
  -7   3  15    0.47    2.81
  -7   3  15    1.27    5.32
   7   3 -15   -0.81    8.67
   7   3 -15    9.07    4.80
  -7   3  15    3.03    1.96
   7   3 -15    3.58    7.61
   5  -3 -15   22.56    8.80
   5  -3 -15   23.24    5.78
   5  -3 -15   17.95   10.41
  -5  -3  15   26.90    4.42
   5  -3 -15   31.71   14.65
  -5  -3  15   28.23    7.00
  -5   3  15   39.49    9.89
  -5   3  15   22.29    3.84
   5   3 -15    9.27    7.85
   5   3 -15   27.44    5.64
  -5   3  15   21.09    2.80
   5   3 -15   13.80    9.35
  -3  -3  15  114.53   12.29
  -3  -3  15   95.91    9.26
   3  -3 -15   73.55   15.06
   3  -3 -15   57.52   17.00
   3  -3 -15  123.53   15.37
   3  -3 -15   94.08   11.25
   3   3 -15  135.39   18.25
   3   3 -15   90.80   10.43
  -3   3  15  102.74   11.36
  -3   3  15   96.52    7.74
   3   3 -15   94.32   12.96
  -3   3  15   91.91    9.11
   1  -3 -15   44.76   13.23
   1  -3 -15   44.35   15.28
  -1  -3  15   44.38    7.49
   1  -3 -15   55.65   11.52
   1  -3 -15   24.63   14.77
  -1  -3  15   46.01    5.84
   1   3 -15   31.26   10.08
  -1   3  15   40.08    4.37
  -1   3  15   52.44    7.48
  -1   3  15   39.52    5.50
   1   3 -15   28.11   13.97
   1   3 -15   42.45   11.38
  -1  -3 -15   11.69    8.78
  -1  -3 -15    5.45   14.54
   1  -3  15    2.53    5.40
  -1  -3 -15    6.02    9.46
  -1  -3 -15   16.65   14.64
   1   3  15    9.42    5.09
   1   3  15   -0.04    2.79
  -1   3 -15   -2.02   10.72
   1   3  15   -3.93    1.76
  -1   3 -15   -1.84    7.06
  -1   3 -15    2.74    8.39
  -3  -3 -15   60.40   16.69
  -3  -3 -15   37.27   12.48
   3  -3  15   73.00    9.07
  -3  -3 -15   50.20   11.34
  -3  -3 -15   47.96   16.85
   3   3  15   47.24    5.06
  -3   3 -15   20.29   14.43
   3   3  15   68.71    8.29
  -3   3 -15   65.10   10.76
   3   3  15   51.76    6.40
  -3   3 -15   57.74   18.46
  -3   3 -15   39.03   11.26
  -5  -3 -15   53.37   14.41
  -5  -3 -15   50.65   16.80
   5  -3  15   52.66    8.85
  -5  -3 -15   42.60   16.95
  -5  -3 -15   49.56   12.75
  -5   3 -15   79.22   13.63
   5   3  15   74.97    9.12
   5   3  15   63.60    5.94
  -5   3 -15   49.14   16.06
  -5   3 -15   43.43   17.01
   5   3  15   77.71    7.90
  -7  -3 -15   31.95   17.68
  -7  -3 -15   17.50   11.96
  -7  -3 -15   44.09   18.32
  -7  -3 -15   18.92   11.46
   7  -3  15   35.08    8.29
   7   3  15   28.06    3.48
  -7   3 -15   39.56   16.72
  -7   3 -15   -0.61    8.55
  -7   3 -15   12.38   16.86
   7   3  15   17.31    4.62
  -7   3 -15   22.66   10.98
  -8  -4  15   58.06    7.54
   8  -4 -15   50.94   11.44
  -8  -4  15   53.74    9.09
  -8  -4  15   72.23    8.85
   8  -4 -15   57.13    8.78
   8  -4 -15   48.34   15.02
  -8   4  15   68.60    6.84
  -8   4  15   66.75    5.93
   8   4 -15   73.19   12.35
   8   4 -15   76.59    8.80
   8   4 -15   71.66   14.54
   6  -4 -15  115.26   12.25
   6  -4 -15   43.95   17.93
  -6  -4  15  114.20   12.97
   6  -4 -15   73.00   12.92
  -6  -4  15   99.75   10.35
   6  -4 -15   87.25   17.57
  -6   4  15   96.52    9.27
  -6   4  15  107.47    8.29
   6   4 -15  126.46   17.97
   6   4 -15  150.84   15.89
   6   4 -15  102.14   10.33
  -4  -4  15   18.97    6.33
   4  -4 -15   19.27   10.48
   4  -4 -15   11.83    7.64
   4  -4 -15   10.59    5.50
   4  -4 -15   18.56   15.14
  -4  -4  15   13.54    3.84
   4  -4 -15   19.61   14.36
  -4   4  15   14.08    2.46
  -4   4  15   16.73    3.49
  -4   4  15   15.69    5.68
   4   4 -15   20.24   10.41
   4   4 -15   10.03    8.06
   2  -4 -15   11.29   13.75
  -2  -4  15   26.69    6.77
   2  -4 -15   15.66   10.59
   2  -4 -15   15.68   14.49
  -2  -4  15   22.59    4.25
   2  -4 -15   32.76    9.57
  -2   4  15   24.27    2.96
  -2   4  15   21.17    4.12
   2   4 -15   14.05    8.13
   2   4 -15   22.87   10.03
  -2   4  15   31.33    6.51
   0  -4  15  102.78   12.19
   0  -4 -15   78.07   16.83
   0  -4 -15   89.97   14.53
   0  -4 -15   82.10   18.72
   0  -4 -15  105.22   20.28
   0   4  15  109.79   11.55
   0   4 -15   78.76   12.40
   0   4  15  100.22    7.91
   0   4  15  105.33    9.35
   0   4 -15  108.06   17.28
   0   4 -15   69.09   17.85
   2  -4  15  149.40   15.65
  -2  -4 -15  123.53   23.69
  -2  -4 -15   98.52   21.89
  -2  -4 -15  158.84   19.46
  -2  -4 -15  133.98   21.82
   2   4  15  154.31   11.83
  -2   4 -15  165.13   23.65
   2   4  15  173.33   14.97
  -2   4 -15  163.16   19.19
  -2   4 -15  168.34   18.00
   2   4  15  159.78   13.14
  -4  -4 -15   16.97    9.53
   4  -4  15    2.36    6.42
  -4  -4 -15    3.29   10.51
  -4  -4 -15   10.91   15.51
  -4  -4 -15   -1.31   15.19
  -4   4 -15    9.65    7.98
   4   4  15   15.88    2.66
  -4   4 -15    9.86    8.77
   4   4  15   24.36    6.49
  -4   4 -15   22.36   14.72
   4   4  15   20.10    4.23
  -6  -4 -15   52.99   12.68
  -6  -4 -15   26.60   12.22
  -6  -4 -15   12.84   18.09
  -6  -4 -15   38.46   18.90
   6  -4  15   60.32    9.42
  -6   4 -15   43.45   16.95
  -6   4 -15   39.75    9.59
   6   4  15   37.86    6.15
  -6   4 -15   26.60   10.82
  -6   4 -15   69.34   19.16
   6   4  15   49.76    4.94
   7  -5 -15    4.35    8.25
  -7  -5  15   -1.31    3.42
  -7  -5  15    4.02    4.31
   7  -5 -15   -3.57    5.13
  -7  -5  15  -14.52    5.64
   7  -5 -15  -11.16   10.04
   7  -5 -15   16.79   16.62
  -7   5  15    0.20    2.73
  -7   5  15    2.20    2.10
   7   5 -15    3.75    9.53
   7   5 -15   -1.57    7.08
  -5  -5  15  104.43   10.14
   5  -5 -15  105.31   20.47
  -5  -5  15  103.70   12.51
   5  -5 -15   65.30   16.18
   5  -5 -15   53.67   18.74
   5  -5 -15  117.72   16.56
   5  -5 -15  125.52   12.56
  -5   5  15  113.59    8.62
   5   5 -15  113.81   18.06
  -5   5  15  107.65    9.67
   5   5 -15  115.48   15.44
  -3  -5  15  135.63   12.51
  -3  -5  15  143.07   15.26
   3  -5 -15  111.96   21.86
   3  -5 -15  149.55   14.24
   3  -5 -15  163.23   23.47
   3  -5 -15  112.22   19.72
   3  -5 -15  127.54   17.91
   3   5 -15  170.73   20.08
   3   5 -15  160.78   17.07
  -3   5  15  153.89   14.29
  -3   5  15  129.90   12.08
  -3   5  15  154.09   11.12
   1  -5 -15   16.96   11.16
   1  -5 -15   32.34    9.21
   1  -5 -15   56.55   17.25
  -1  -5  15   34.98    7.57
   1  -5 -15   21.90   15.51
   1   5 -15   40.65    9.59
  -1   5  15   26.00    4.53
  -1   5  15   20.80    6.35
  -1   5  15   31.77    3.54
   1   5 -15   30.44   10.55
   1  -5  15   -1.59    5.38
  -1  -5 -15    2.56   15.42
  -1  -5 -15   10.51    8.02
  -1  -5 -15   -0.11    9.46
  -1  -5 -15    0.20   15.35
  -1   5 -15   -0.64    7.04
   1   5  15    4.28    5.38
   1   5  15    0.67    1.96
  -1   5 -15    1.15    8.82
  -1   5 -15   10.57   13.63
   1   5  15   -0.94    2.76
  -3  -5 -15   65.97   17.88
  -3  -5 -15   53.23   18.14
  -3  -5 -15   65.16   13.02
  -3  -5 -15   49.54   15.34
   3  -5  15   67.88    9.98
  -3   5 -15   76.89   13.16
  -3   5 -15   41.77   16.79
  -3   5 -15   70.34   11.35
   3   5  15   75.70    6.25
   3   5  15   64.09    7.66
  -5  -5 -15   96.76   18.23
  -5  -5 -15   96.64   16.13
   5  -5  15  107.32   14.62
  -5  -5 -15   72.18   22.28
  -5  -5 -15   94.95   21.76
  -5   5 -15   79.96   19.79
  -5   5 -15  131.70   18.81
   5   5  15  136.23    9.44
  -5   5 -15  110.35   15.69
  -6  -6  15  117.59   14.93
  -6  -6  15  140.76   12.52
   6  -6 -15  125.67   14.26
   6  -6 -15  127.25   18.44
   6  -6 -15   90.52   18.56
  -6  -6  15  148.98   11.95
  -6   6  15  129.60   10.36
  -6   6  15  121.79   11.17
   6   6 -15  134.66   16.53
   6   6 -15  176.36   19.61
   4  -6 -15   -5.99    8.03
   4  -6 -15   -0.67    5.07
  -4  -6  15    6.47    5.83
   4  -6 -15    0.60   16.28
  -4  -6  15    0.84    3.64
   4  -6 -15   -3.52    9.45
   4  -6 -15   23.25   16.04
   4   6 -15    3.41    7.32
   4   6 -15  -13.81    7.76
  -4   6  15    4.73    2.17
  -4   6  15   -1.43    2.87
   2  -6 -15   42.97   16.71
   2  -6 -15   42.30    9.69
   2  -6 -15   20.90   12.33
  -2  -6  15   37.87    7.75
   2  -6 -15   18.67   16.92
  -2  -6  15   31.18    5.45
  -2   6  15   28.87    4.73
   2   6 -15   40.69   11.32
   2   6 -15   43.15    9.62
  -2   6  15   34.13    4.13
   0  -6 -15   52.27   11.51
   0  -6 -15   13.23   16.54
   0  -6  15   60.43    9.49
   0  -6 -15   35.56   16.70
   0  -6 -15   53.79   15.52
   0   6  15   53.72    5.51
   0   6 -15   66.83   10.78
   0   6 -15   77.64   13.46
   0   6  15   68.28    7.09
   0   6  15   58.03    8.57
  -2  -6 -15   31.59   19.11
  -2  -6 -15   48.84   18.22
  -2  -6 -15   31.23   14.20
   2  -6  15   70.58   10.57
  -2  -6 -15   51.73   11.89
  -2   6 -15   72.19   10.68
  -2   6 -15   98.14   13.79
   2   6  15   69.70    7.73
   2   6  15   67.51    6.09
  -4  -6 -15   34.64   13.38
   4  -6  15   36.73    8.46
  -4  -6 -15   25.78   10.96
  -4  -6 -15   26.08   16.49
  -4  -6 -15   43.81   18.40
   4   6  15   32.13    5.40
  -4   6 -15   37.35   10.80
  -4   6 -15   20.80   13.67
   4   6  15   26.86    3.64
  -4   6 -15   23.93    8.38
   5  -7 -15   45.57   14.72
   5  -7 -15   72.76   19.79
   5  -7 -15   62.90   18.90
   5  -7 -15   47.36   11.88
  -5  -7  15   55.46    9.37
   5  -7 -15   34.84    7.81
  -5  -7  15   56.81    6.63
  -5   7  15   46.74    5.48
  -5   7  15   72.32    6.96
   5   7 -15   61.71    5.99
   5   7 -15   50.00   10.14
   5   7 -15   81.60   13.52
   3  -7 -15   77.57   12.81
  -3  -7  15   83.80   10.74
  -3  -7  15  100.03    9.54
   3  -7 -15   80.16   17.15
   3  -7 -15   62.91   18.99
   3  -7 -15   50.38   20.35
  -3   7  15   83.44    8.38
  -3   7  15   82.55    7.11
   3   7 -15   54.75   10.58
   3   7 -15   96.58   14.02
  -1  -7  15   16.87    6.96
   1  -7 -15   22.94    9.25
   1  -7 -15   31.34   17.25
   1  -7 -15    3.88   10.83
   1  -7 -15   17.59   17.46
   1   7 -15   30.06    8.29
   1   7 -15   27.56    9.91
  -1   7  15   20.17    3.21
  -1   7  15   23.13    4.29
  -1  -7 -15  -13.25   15.96
  -1  -7 -15   -3.43    8.24
   1  -7  15    0.27    6.47
  -1  -7 -15   -1.89   10.57
  -1  -7 -15   12.66   17.36
   1   7  15    3.18    3.15
   1   7  15    2.40    2.13
  -1   7 -15   10.56    8.63
  -1   7 -15   15.68    7.29
  -3  -7 -15   64.34   12.90
  -3  -7 -15   15.67   17.12
  -3  -7 -15   11.12   12.75
  -3   7 -15   41.29   10.57
  -3   7 -15   52.80    9.20
   3   7  15   41.73    5.94
  -6   0  16   26.93    4.58
   6   0 -16    8.68    8.42
  -6   0  16   29.26    7.67
   6   0 -16   24.76   11.61
   6   0 -16   29.78    6.41
   4   0 -16   18.05   10.52
   4   0 -16   26.91    9.75
   4   0 -16   18.42    6.06
  -4   0  16   13.73    6.38
  -4   0  16   16.94    4.17
   4   0 -16   35.67   15.64
   2   0 -16   74.74   15.43
   2   0 -16   77.14   12.69
   2   0 -16   95.84   10.92
  -2   0  16   73.07    8.35
   2   0 -16   65.14   18.18
  -2   0  16   83.76   10.76
   0   0  16  107.50   10.39
   0   0 -16  108.56   12.25
   0   0 -16  143.68   23.22
   0   0 -16   91.14   19.61
   0   0  16  130.91   13.67
   0   0 -16   87.21   16.82
  -2   0 -16  -12.13   12.83
  -2   0 -16   21.24   11.26
  -2   0 -16   33.33    9.92
   2   0  16   17.79    4.57
   2   0  16   23.72    7.00
  -2   0 -16   23.05    6.09
  -2   0 -16   25.44   16.23
  -4   0 -16   19.25    9.84
   4   0  16   10.87    6.80
  -4   0 -16    5.34   14.41
  -4   0 -16    9.39   10.87
  -4   0 -16   26.38   16.61
   4   0  16    0.33    3.66
   7  -1 -16   84.88   16.96
  -7  -1  16   84.74    8.24
  -7  -1  16   60.99    9.71
   7  -1 -16   67.19    9.13
   7  -1 -16   83.29   13.72
   7   1 -16  103.19   10.92
  -7   1  16   64.84    7.37
   7   1 -16   52.47   13.64
  -7   1  16   68.53   10.10
   7   1 -16   51.85   11.70
  -5  -1  16   73.34    9.97
   5  -1 -16   85.81   16.49
   5  -1 -16   89.07   19.38
   5  -1 -16  109.54   11.00
   5  -1 -16   64.41   12.38
  -5  -1  16   58.36    8.05
   5   1 -16   77.68    9.14
  -5   1  16   69.28    7.97
   5   1 -16   58.71   11.52
   5   1 -16   66.13   14.77
  -5   1  16   67.86    9.67
   3  -1 -16   33.08   15.42
  -3  -1  16   56.93    6.33
  -3  -1  16   27.86    7.59
   3  -1 -16   39.13   10.32
   3  -1 -16   59.58    7.86
   3  -1 -16   32.85   12.30
   3   1 -16   45.42    7.11
  -3   1  16   64.64    6.78
   3   1 -16   13.27   15.17
   3   1 -16   52.58   13.21
   3   1 -16   34.45   10.33
  -3   1  16   42.65    8.07
  -1  -1  16    2.82    3.30
   1  -1 -16   14.78   14.00
  -1  -1  16   13.61    6.35
   1  -1 -16    7.96   13.78
   1  -1 -16   14.46    5.79
   1  -1 -16   -0.41    7.91
   1  -1 -16    7.06   10.27
  -1   1  16   12.94    6.04
  -1   1  16    9.78    3.98
   1   1 -16    5.81   14.79
   1   1 -16   14.64    5.39
   1   1 -16   25.00    9.55
   1   1 -16    5.72   10.24
  -1  -1 -16   17.97    9.39
  -1  -1 -16   46.62   16.63
   1  -1  16   19.62    7.02
   1  -1  16   16.93    4.40
  -1  -1 -16   24.96   14.44
  -1  -1 -16   11.48   10.43
  -1  -1 -16   36.53    6.52
   1   1  16   23.77    4.69
  -1   1 -16   21.15   14.01
  -1   1 -16   21.58    6.15
  -1   1 -16   37.38   11.35
   1   1  16   24.66    3.01
   1   1  16   22.37    7.11
  -1   1 -16   24.22    9.52
  -1   1 -16   32.55   15.62
   3  -1  16  173.60   13.74
  -3  -1 -16  107.38   23.32
  -3  -1 -16  183.87   21.36
  -3  -1 -16  147.64   25.06
   3  -1  16  135.42   16.37
  -3   1 -16  143.95   24.23
   3   1  16  191.78   13.93
   3   1  16  155.74   11.88
  -3   1 -16  133.16   21.32
   3   1  16  126.00   15.89
  -6  -2  16   59.02    7.42
  -6  -2  16   65.73    9.59
   6  -2 -16   40.59   14.08
   6  -2 -16   48.92   11.76
   6  -2 -16   55.95    8.63
   6   2 -16   70.58   14.99
  -6   2  16   54.63    8.83
  -6   2  16   50.00    6.33
   6   2 -16   72.33   12.38
   6   2 -16   67.37    8.30
   4  -2 -16   16.74    8.99
   4  -2 -16   23.97   12.08
  -4  -2  16   19.54    7.01
  -4  -2  16   16.22    4.25
   4  -2 -16  -17.56   14.60
   4  -2 -16    6.55    5.73
   4   2 -16   22.85    5.93
  -4   2  16   15.48    2.78
  -4   2  16   18.21    3.95
   4   2 -16   16.50    8.27
  -4   2  16   18.25    6.61
   4   2 -16   25.86   12.63
  -2  -2  16  117.32   14.36
   2  -2 -16  113.90   16.11
  -2  -2  16  120.38   11.14
   2  -2 -16   77.96   19.70
   2  -2 -16  106.00   13.01
   2  -2 -16   98.13   21.52
   2  -2 -16  109.36   18.85
  -2   2  16  131.19    9.43
   2   2 -16  162.17   18.49
  -2   2  16  115.01   13.86
   2   2 -16  134.28   19.69
   2   2 -16  132.33   12.37
   2   2 -16   74.30   18.89
  -2   2  16  125.85   10.91
   0  -2 -16   53.97   16.96
   0  -2 -16   57.44   13.86
   0  -2 -16   74.67   12.55
   0  -2 -16   96.33   10.98
   0  -2 -16   76.24   18.48
   0  -2  16   83.40   10.98
   0  -2  16   72.80    8.63
   0   2  16   83.18    8.64
   0   2  16   87.92    6.79
   0   2 -16   71.46   14.31
   0   2 -16   66.92   18.03
   0   2 -16   78.01   12.71
  -2  -2 -16   -0.89    8.97
  -2  -2 -16  -15.21   14.39
   2  -2  16    1.92    6.31
  -2  -2 -16    1.74    9.70
  -2  -2 -16    6.22   15.20
  -2   2 -16   30.18   16.64
   2   2  16    3.30    2.23
  -2   2 -16    3.54    8.51
  -2   2 -16    9.91   10.05
  -2   2 -16    0.94   13.27
   2   2  16    4.78    3.21
  -4  -2 -16   12.11   11.21
  -4  -2 -16   12.02   15.78
  -4  -2 -16   -8.88   14.69
   4  -2  16    2.53    6.84
  -4  -2 -16   16.65   10.86
  -4   2 -16   14.96   10.85
  -4   2 -16   11.90   15.42
   4   2  16   10.21    2.64
   4   2  16   13.01    4.07
  -4   2 -16   -3.43   13.26
  -4   2 -16   -0.35    9.10
   5  -3 -16   36.30    7.16
   5  -3 -16   29.26   16.96
  -5  -3  16   36.67    7.62
  -5  -3  16   25.59    5.03
   5  -3 -16   21.84    9.06
   5  -3 -16   21.85   13.06
  -5  -3  16   28.05    5.66
   5   3 -16   46.92    6.71
   5   3 -16   39.40   10.17
  -5   3  16   28.82    4.78
   5   3 -16   44.29   13.26
  -5   3  16   33.12    3.61
  -5   3  16   45.86    7.67
   3  -3 -16   27.80   16.12
   3  -3 -16   34.58   12.61
   3  -3 -16   37.25    9.57
  -3  -3  16   26.68    4.93
  -3  -3  16   32.39    7.59
   3  -3 -16   38.81    7.23
   3  -3 -16   19.89   16.63
  -3   3  16   30.30    4.97
  -3   3  16   30.74    3.53
   3   3 -16   39.07   12.65
  -3   3  16   31.71    7.64
   3   3 -16   44.42   10.03
   1  -3 -16   -1.90   14.32
  -1  -3  16  -13.23    5.95
  -1  -3  16   -1.95    3.55
   1  -3 -16    1.01    5.28
   1  -3 -16   -3.11    9.22
   1  -3 -16    1.62    8.49
   1  -3 -16    6.67   14.29
   1   3 -16   -0.38   12.58
   1   3 -16    2.81    9.68
  -1   3  16   -1.29    3.02
  -1   3  16   -0.04    2.03
   1   3 -16    3.57    8.42
  -1  -3 -16   16.83   15.26
  -1  -3 -16   23.49    9.90
  -1  -3 -16   26.72   11.55
  -1  -3 -16   15.37   15.99
   1  -3  16   31.54    4.88
   1  -3  16    5.60    6.74
   1   3  16   17.56    2.94
  -1   3 -16    8.34   13.86
  -1   3 -16    3.20    8.61
  -1   3 -16   14.67    9.98
   1   3  16   17.08    4.04
   1   3  16   22.52    7.21
  -3  -3 -16    8.10   10.75
  -3  -3 -16   27.02   12.58
   3  -3  16   14.86    7.61
  -3  -3 -16   36.66   16.60
  -3  -3 -16   25.22   15.69
  -3   3 -16   14.12   15.18
  -3   3 -16   38.50   10.17
  -3   3 -16   26.84   10.92
   3   3  16   30.44    4.86
   3   3  16   14.95    7.63
   3   3  16   19.25    3.13
   4  -4 -16   16.97   16.18
   4  -4 -16    4.98    5.61
   4  -4 -16   -7.84   15.68
  -4  -4  16    2.08    6.59
  -4  -4  16   -0.97    3.68
   4  -4 -16   -1.57    8.38
   4  -4 -16   -6.05   10.10
   4   4 -16    0.07   10.06
  -4   4  16    0.91    6.19
  -4   4  16   -0.90    2.91
  -4   4  16   -0.19    2.07
   4   4 -16    6.46    8.50
   2  -4 -16   25.36   12.02
   2  -4 -16   51.67   17.55
   2  -4 -16   26.58   16.12
   2  -4 -16   40.27    7.50
  -2  -4  16   31.64    5.45
  -2  -4  16   25.10    7.34
   2  -4 -16   19.87    9.99
  -2   4  16   34.81    5.12
  -2   4  16   25.96    7.97
  -2   4  16   27.54    3.58
   2   4 -16   47.40   12.32
   2   4 -16   31.47    9.56
   0  -4 -16   17.14   17.14
   0  -4 -16   -5.54    9.48
   0  -4 -16  -13.24   15.59
   0  -4 -16    8.37   10.45
   0  -4  16    9.27    6.16
   0  -4  16    2.27    3.94
   0   4  16   11.72    3.57
   0   4 -16   -0.44    7.61
   0   4  16    2.44    6.22
   0   4 -16    1.71   13.26
   0   4 -16   12.35   10.40
   0   4  16    3.08    2.22
  -2  -4 -16   -2.49    9.80
  -2  -4 -16    1.14   14.88
  -2  -4 -16  -32.62   15.09
  -2  -4 -16   15.52   11.25
   2  -4  16   -3.18    6.45
  -2   4 -16   -2.88    9.68
   2   4  16    0.18    2.25
   2   4  16   11.40    3.76
  -2   4 -16   22.84   14.59
  -2   4 -16    3.24    8.34
   2   4  16   -3.30    6.23
   3  -5 -16  -10.23    8.86
   3  -5 -16   -8.91    9.83
  -3   5  16   14.01    6.74
   3   5 -16    4.23   10.01
   3   5 -16   10.10    8.12
   1  -5 -16   18.16   16.73
   1  -5 -16   24.96   10.47
   1  -5 -16   13.12   16.71
   1  -5 -16   13.87   11.66
  -1  -5  16   10.69    6.78
  -1  -5  16   18.33    4.69
   1   5 -16   -3.12    8.08
  -1   5  16   12.42    2.60
  -1   5  16    5.52    3.65
  -1   5  16   13.57    6.86
   1   5 -16    2.15    9.66
   0   0   0    0.00    0.00
;
_shelx_hkl_checksum              5515
loop_
_space_group_symop_operation_xyz
'x, y, z'
'-x, y, -z+1/2'
'x+1/2, y+1/2, z'
'-x+1/2, y+1/2, -z+1/2'
'-x, -y, -z'
'x, -y, z-1/2'
'-x+1/2, -y+1/2, -z'
'x+1/2, -y+1/2, z-1/2'
loop_
_atom_site_label
_atom_site_type_symbol
_atom_site_fract_x
_atom_site_fract_y
_atom_site_fract_z
_atom_site_U_iso_or_equiv
_atom_site_adp_type
_atom_site_occupancy
_atom_site_site_symmetry_order
_atom_site_calc_flag
Lu1 Lu 0.31139(2) 0.04838(2) 0.84664(2) 0.00592(5) Uani 1 1 d
B1 B 0.4992(3) 0.3279(3) 1.0268(3) 0.0061(6) Uani 1 1 d
S1 S 0.57854(6) 0.14531(6) 0.91790(7) 0.00629(13) Uani 1 1 d
S2 S 0.35951(6) -0.20058(6) 0.64019(7) 0.00547(13) Uani 1 1 d
S3 S 0.12920(6) -0.01166(7) 0.57781(7) 0.00610(13) Uani 1 1 d
O11 O 0.57443(18) 0.27482(19) 0.9560(2) 0.0121(5) Uani 1 1 d
O12 O 0.6234(2) 0.0828(2) 1.0227(3) 0.0205(6) Uani 1 1 d
O13 O 0.4795(2) 0.1051(2) 0.8835(3) 0.0181(5) Uani 1 1 d
O14 O 0.35597(19) 0.1476(2) 0.6833(2) 0.0136(5) Uani 1 1 d
O21 O 0.37503(19) -0.1086(2) 0.7315(2) 0.0124(5) Uani 1 1 d
O22 O 0.19767(18) 0.2017(2) 0.8148(2) 0.0120(5) Uani 1 1 d
O23 O 0.31759(18) 0.1561(2) 1.0220(2) 0.0103(4) Uani 1 1 d
O24 O 0.46448(17) -0.2471(2) 0.6189(2) 0.0088(4) Uani 1 1 d
O31 O 0.18948(18) -0.0151(2) 0.6916(2) 0.0108(4) Uani 1 1 d
O32 O 0.17667(19) -0.0191(2) 0.9667(2) 0.0130(5) Uani 1 1 d
O33 O -0.08239(18) 0.1322(2) 0.4367(2) 0.0106(4) Uani 1 1 d
O34 O 0.04234(17) 0.0706(2) 0.5973(2) 0.0085(4) Uani 1 1 d
loop_
_atom_site_aniso_label
_atom_site_aniso_U_11
_atom_site_aniso_U_22
_atom_site_aniso_U_33
_atom_site_aniso_U_23
_atom_site_aniso_U_13
_atom_site_aniso_U_12
Lu1 0.00687(7) 0.00632(6) 0.00470(7) -0.00002(5) 0.00138(4) 0.00037(4)
B1 0.0074(15) 0.0040(13) 0.0071(15) 0.0010(11) 0.0020(12) -0.0007(11)
S1 0.0066(3) 0.0061(3) 0.0064(3) -0.0008(3) 0.0021(2) 0.0001(2)
S2 0.0060(3) 0.0052(3) 0.0053(3) 0.0000(3) 0.0016(2) 0.0005(2)
S3 0.0057(3) 0.0055(3) 0.0070(3) -0.0010(3) 0.0000(3) 0.0010(2)
O11 0.0129(11) 0.0062(9) 0.0182(13) -0.0017(9) 0.0096(10) 0.0001(8)
O12 0.0263(15) 0.0183(12) 0.0167(14) 0.0082(11) 0.0003(11) 0.0111(11)
O13 0.0117(12) 0.0251(13) 0.0176(14) -0.0087(11) 0.0033(10) -0.0078(10)
O14 0.0126(12) 0.0155(11) 0.0136(12) 0.0068(10) 0.0085(9) 0.0026(9)
O21 0.0139(11) 0.0100(10) 0.0131(12) -0.0073(9) -0.0014(9) 0.0010(9)
O22 0.0138(12) 0.0118(10) 0.0106(12) -0.0045(9) 0.0020(9) 0.0054(9)
O23 0.0103(11) 0.0111(10) 0.0095(11) -0.0031(9) -0.0005(9) -0.0026(8)
O24 0.0073(10) 0.0100(10) 0.0089(11) -0.0020(9) 0.0005(8) 0.0036(8)
O31 0.0103(11) 0.0130(11) 0.0087(11) -0.0014(9) -0.0035(8) 0.0024(8)
O32 0.0145(12) 0.0122(10) 0.0130(12) -0.0027(9) 0.0079(10) -0.0038(9)
O33 0.0140(11) 0.0071(10) 0.0102(11) -0.0004(9) -0.0037(9) 0.0019(8)
O34 0.0077(10) 0.0081(9) 0.0102(11) 0.0024(8) 0.0034(8) 0.0032(8)
loop_
_atom_type_symbol
_atom_type_description
_atom_type_scat_dispersion_real
_atom_type_scat_dispersion_imag
_atom_type_scat_source
B B 0.0013 0.0007 'International Tables Vol C Tables 4.2.6.8 and 6.1.1.4'
O O 0.0106 0.0060 'International Tables Vol C Tables 4.2.6.8 and 6.1.1.4'
S S 0.1246 0.1234 'International Tables Vol C Tables 4.2.6.8 and 6.1.1.4'
Lu Lu -0.4720 5.8584 'International Tables Vol C Tables 4.2.6.8 and 6.1.1.4'
loop_
_geom_angle_atom_site_label_1
_geom_angle_atom_site_label_2
_geom_angle_atom_site_label_3
_geom_angle
_geom_angle_site_symmetry_1
_geom_angle_site_symmetry_3
O12 Lu1 O14 137.89(10) 5_657 .
O12 Lu1 O23 80.52(10) 5_657 .
O14 Lu1 O23 113.34(10) . .
O12 Lu1 O22 146.61(10) 5_657 .
O14 Lu1 O22 73.00(9) . .
O23 Lu1 O22 73.11(9) . .
O12 Lu1 O21 71.50(10) 5_657 .
O14 Lu1 O21 80.84(9) . .
O23 Lu1 O21 148.84(9) . .
O22 Lu1 O21 137.87(9) . .
O12 Lu1 O13 74.59(11) 5_657 .
O14 Lu1 O13 72.10(10) . .
O23 Lu1 O13 73.89(9) . .
O22 Lu1 O13 115.79(10) . .
O21 Lu1 O13 85.48(9) . .
O12 Lu1 O31 118.53(10) 5_657 .
O14 Lu1 O31 78.58(10) . .
O23 Lu1 O31 138.07(8) . .
O22 Lu1 O31 72.76(9) . .
O21 Lu1 O31 70.05(9) . .
O13 Lu1 O31 144.38(9) . .
O12 Lu1 O32 74.04(10) 5_657 .
O14 Lu1 O32 147.08(9) . .
O23 Lu1 O32 73.33(9) . .
O22 Lu1 O32 78.97(9) . .
O21 Lu1 O32 110.47(9) . .
O13 Lu1 O32 137.54(10) . .
O31 Lu1 O32 76.88(9) . .
O11 B1 O24 111.3(3) . 6_556
O11 B1 O34 109.4(3) . 8_556
O24 B1 O34 105.8(3) 6_556 8_556
O11 B1 O33 107.2(3) . 8_556
O24 B1 O33 112.6(3) 6_556 8_556
O34 B1 O33 110.5(3) 8_556 8_556
O13 S1 O12 112.72(18) . .
O13 S1 O14 114.13(16) . 2_656
O12 S1 O14 110.93(17) . 2_656
O13 S1 O11 109.12(16) . .
O12 S1 O11 106.47(17) . .
O14 S1 O11 102.70(14) 2_656 .
O21 S2 O22 112.56(15) . 4_546
O21 S2 O23 112.36(15) . 6
O22 S2 O23 111.92(15) 4_546 6
O21 S2 O24 104.69(14) . .
O22 S2 O24 107.30(14) 4_546 .
O23 S2 O24 107.49(14) 6 .
O31 S3 O32 117.76(16) . 6
O31 S3 O33 106.02(14) . 5_556
O32 S3 O33 109.70(15) 6 5_556
O31 S3 O34 107.40(14) . .
O32 S3 O34 110.49(14) 6 .
O33 S3 O34 104.58(14) 5_556 .
B1 O11 S1 125.8(2) . .
S1 O12 Lu1 166.5(2) . 5_657
S1 O13 Lu1 173.90(18) . .
S1 O14 Lu1 143.41(16) 2_656 .
S2 O21 Lu1 149.68(16) . .
S2 O22 Lu1 151.54(16) 4_556 .
S2 O23 Lu1 156.83(16) 6_556 .
B1 O24 S2 130.9(2) 6 .
S3 O31 Lu1 157.67(17) . .
S3 O32 Lu1 139.18(15) 6_556 .
B1 O33 S3 128.9(2) 8_455 5_556
B1 O34 S3 133.5(2) 8_455 .
loop_
_geom_bond_atom_site_label_1
_geom_bond_atom_site_label_2
_geom_bond_distance
_geom_bond_site_symmetry_2
Lu1 O12 2.200(3) 5_657
Lu1 O14 2.206(2) .
Lu1 O23 2.252(2) .
Lu1 O22 2.332(2) .
Lu1 O21 2.364(2) .
Lu1 O13 2.366(3) .
Lu1 O31 2.386(3) .
Lu1 O32 2.416(2) .
B1 O11 1.438(4) .
B1 O24 1.451(4) 6_556
B1 O34 1.482(4) 8_556
B1 O33 1.494(4) 8_556
S1 O13 1.438(3) .
S1 O12 1.438(3) .
S1 O14 1.444(3) 2_656
S1 O11 1.530(2) .
S2 O21 1.444(2) .
S2 O22 1.451(2) 4_546
S2 O23 1.456(2) 6
S2 O24 1.539(2) .
S3 O31 1.433(3) .
S3 O32 1.436(3) 6
S3 O33 1.512(2) 5_556
S3 O34 1.522(2) .
O12 Lu1 2.200(3) 5_657
O14 S1 1.444(2) 2_656
O22 S2 1.451(2) 4_556
O23 S2 1.456(2) 6_556
O24 B1 1.451(4) 6
O32 S3 1.436(3) 6_556
O33 B1 1.494(4) 8_455
O33 S3 1.512(2) 5_556
O34 B1 1.482(4) 8_455
