#------------------------------------------------------------------------------
#$Date: 2019-11-08 00:30:46 +0200 (Fri, 08 Nov 2019) $
#$Revision: 224274 $
#$URL: file:///home/coder/svn-repositories/cod/cif/7/04/92/7049219.cif $
#------------------------------------------------------------------------------
#
# This file is available in the Crystallography Open Database (COD),
# http://www.crystallography.net/
#
# All data on this site have been placed in the public domain by the
# contributors.
#
data_7049219
loop_
_publ_author_name
'Netzsch, Philip'
'H\"ammer, Matthias'
'Gross, Peter'
'Bariss, Harijs'
'Block, Theresa'
'Heletta, Lukas'
'P\"ottgen, Rainer'
'Bruns, J\"orn'
'Huppertz, Hubert'
'H\"oppe, Henning A'
_publ_section_title
;
 RE<sub>2</sub>[B<sub>2</sub>(SO<sub>4</sub>)<sub>6</sub>] (RE = Y, La-Nd,
 Sm, Eu, Tb-Lu): a silicate-analogous host structure with weak
 coordination behaviour.
;
_journal_issue                   13
_journal_name_full
'Dalton transactions (Cambridge, England : 2003)'
_journal_page_first              4387
_journal_page_last               4397
_journal_paper_doi               10.1039/c9dt00445a
_journal_volume                  48
_journal_year                    2019
_chemical_formula_sum            'B2 Ce2 O24 S6'
_chemical_formula_weight         878.22
_space_group_crystal_system      monoclinic
_space_group_IT_number           15
_space_group_name_Hall           '-C 2yc'
_space_group_name_H-M_alt        'C 1 2/c 1'
_symmetry_space_group_name_Hall  '-C 2yc'
_symmetry_space_group_name_H-M   'C 1 2/c 1'
_audit_creation_method           SHELXL-2014/7
_cell_angle_alpha                90
_cell_angle_beta                 93.6606(12)
_cell_angle_gamma                90
_cell_formula_units_Z            4
_cell_length_a                   13.7400(5)
_cell_length_b                   11.5371(4)
_cell_length_c                   11.3057(4)
_cell_measurement_reflns_used    2039
_cell_measurement_temperature    298(2)
_cell_measurement_theta_max      27.444
_cell_measurement_theta_min      2.307
_cell_volume                     1788.52(11)
_computing_structure_refinement  'SHELXL-2014/7 (Sheldrick, 2014)'
_diffrn_ambient_temperature      298(2)
_diffrn_measured_fraction_theta_full 1.000
_diffrn_measured_fraction_theta_max 0.996
_diffrn_measurement_device_type  'Bruker D8 Venture'
_diffrn_measurement_method       'omega scan'
_diffrn_radiation_monochromator  graphite
_diffrn_radiation_source         'fine-focus sealed tube'
_diffrn_radiation_type           MoK\a
_diffrn_radiation_wavelength     0.71073
_diffrn_reflns_av_R_equivalents  0.0630
_diffrn_reflns_av_unetI/netI     0.0326
_diffrn_reflns_Laue_measured_fraction_full 1.000
_diffrn_reflns_Laue_measured_fraction_max 0.996
_diffrn_reflns_limit_h_max       17
_diffrn_reflns_limit_h_min       -17
_diffrn_reflns_limit_k_max       14
_diffrn_reflns_limit_k_min       -14
_diffrn_reflns_limit_l_max       14
_diffrn_reflns_limit_l_min       -14
_diffrn_reflns_number            16577
_diffrn_reflns_point_group_measured_fraction_full 1.000
_diffrn_reflns_point_group_measured_fraction_max 0.996
_diffrn_reflns_theta_full        25.242
_diffrn_reflns_theta_max         27.444
_diffrn_reflns_theta_min         2.307
_exptl_absorpt_coefficient_mu    5.856
_exptl_absorpt_correction_type   multi-scan
_exptl_absorpt_process_details
; 
 multi-scan absorption correction using SADABS 
(G. M. Sheldrick, (1996). SADABS. Program for Empirical 
Absorption Correction. University of G\"ottingen, Germany.)
;
_exptl_crystal_colour            yellow
_exptl_crystal_density_diffrn    3.262
_exptl_crystal_description       block
_exptl_crystal_F_000             1656
_exptl_crystal_size_max          0.07
_exptl_crystal_size_mid          0.05
_exptl_crystal_size_min          0.04
_exptl_transmission_factor_max   0.7455
_exptl_transmission_factor_min   0.6730
_refine_diff_density_max         0.623
_refine_diff_density_min         -0.659
_refine_diff_density_rms         0.142
_refine_ls_extinction_method     none
_refine_ls_goodness_of_fit_ref   1.044
_refine_ls_hydrogen_treatment    undef
_refine_ls_matrix_type           full
_refine_ls_number_parameters     154
_refine_ls_number_reflns         2039
_refine_ls_number_restraints     0
_refine_ls_restrained_S_all      1.044
_refine_ls_R_factor_all          0.0307
_refine_ls_R_factor_gt           0.0215
_refine_ls_shift/su_max          0.000
_refine_ls_shift/su_mean         0.000
_refine_ls_structure_factor_coef Fsqd
_refine_ls_weighting_details
'w=1/[\s^2^(Fo^2^)+(0.0178P)^2^+2.7211P] where P=(Fo^2^+2Fc^2^)/3'
_refine_ls_weighting_scheme      calc
_refine_ls_wR_factor_gt          0.0431
_refine_ls_wR_factor_ref         0.0453
_reflns_Friedel_coverage         0.000
_reflns_number_gt                1745
_reflns_number_total             2039
_reflns_threshold_expression     'I > 2\s(I)'
_cod_data_source_file            c9dt00445a1.cif
_cod_data_source_block           mo_MH065_0m
_cod_depositor_comments
'Adding full bibliography for 7049219--7049233.cif.'
_cod_database_code               7049219
_shelx_shelxl_version_number     2014/7
_shelx_space_group_comment
;
The symmetry employed for this shelxl refinement is uniquely defined
by the following loop, which should always be used as a source of
symmetry information in preference to the above space-group names.
They are only intended as comments.
;
_shelx_res_file
;

    mo_MH065_0m.res created by SHELXL-2014/7


TITL mo_MH065_0m in C2/c
CELL 0.71073  13.74000  11.53710  11.30570  90.0000  93.6606  90.0000
ZERR    4.00   0.00050   0.00040   0.00040   0.0000   0.0012   0.0000
LATT  7
SYMM -X, Y, 0.5-Z
SFAC B O S CE
UNIT 8 96 24 8
TEMP 24.580

ACTA

L.S. 100
BOND
FMAP 2
PLAN 20
REM EXTI    0.000096
WGHT    0.017800    2.721100
FVAR       0.05865
MOLE   1
CE1   4    0.187482    0.452097    0.157478    11.00000    0.00742    0.00795 =
         0.00621   -0.00043    0.00046    0.00050
S1    3    0.135051    0.702509    0.362866    11.00000    0.00738    0.00610 =
         0.00728   -0.00037    0.00110    0.00045
O11   2    0.033119    0.248848   -0.115943    11.00000    0.00811    0.01127 =
         0.01306    0.00449   -0.00091   -0.00385
O12   2    0.177327    0.659457    0.475160    11.00000    0.01160    0.01133 =
         0.00950    0.00219    0.00061    0.00112
O13   2    0.117404    0.611698    0.276644    11.00000    0.01404    0.01359 =
         0.01459   -0.00705   -0.00168    0.00454
O14   2    0.191957    0.797209    0.318007    11.00000    0.01568    0.01480 =
         0.01618    0.00515    0.00252   -0.00485
S2    3   -0.078165    0.347029    0.079290    11.00000    0.00915    0.00756 =
         0.00839   -0.00085    0.00094    0.00077
O21   2   -0.075036    0.220535    0.038553    11.00000    0.01180    0.00782 =
         0.02040   -0.00259    0.00879   -0.00035
O22   2    0.018437    0.380865    0.122091    11.00000    0.01297    0.02417 =
         0.01902   -0.00674    0.00216   -0.00737
O23   2   -0.147297    0.345563    0.170258    11.00000    0.01431    0.01922 =
         0.01594   -0.00799    0.00695   -0.00399
O24   2   -0.113278    0.414156   -0.021006    11.00000    0.03225    0.02086 =
         0.01794    0.00657   -0.00001    0.01233
S3    3    0.373374    0.513371    0.424619    11.00000    0.00689    0.00652 =
         0.00969   -0.00118   -0.00072    0.00084
O31   2    0.420166    0.631718    0.441433    11.00000    0.01469    0.00503 =
         0.01361   -0.00186   -0.00637   -0.00010
O32   2    0.457886    0.431800    0.405160    11.00000    0.00876    0.00752 =
         0.01068    0.00157    0.00243    0.00284
O33   2    0.325144    0.481481    0.528299    11.00000    0.01449    0.01370 =
         0.01698    0.00244    0.00670    0.00422
O34   2    0.314725    0.520051    0.315587    11.00000    0.01586    0.01354 =
         0.01616   -0.00238   -0.00618    0.00238
B1    1   -0.000293    0.169021   -0.027874    11.00000    0.00865    0.00714 =
         0.00979    0.00246   -0.00099   -0.00305

MOLE   2
HKLF 4

REM  mo_MH065_0m in C2/c
REM R1 =  0.0215 for    1745 Fo > 4sig(Fo)  and  0.0307 for all    2039 data
REM    154 parameters refined using      0 restraints

END

WGHT      0.0178      2.7211

REM Highest difference peak  0.623,  deepest hole -0.659,  1-sigma level  0.142
Q1    1   0.0000  0.2556 -0.2500  10.50000  0.05    0.62
Q2    1  -0.0636  0.1399  0.1107  11.00000  0.05    0.50
Q3    1   0.1904  0.5601  0.3590  11.00000  0.05    0.50
Q4    1   0.1213  0.6414  0.3251  11.00000  0.05    0.49
Q5    1   0.3177  0.6811  0.5074  11.00000  0.05    0.47
Q6    1   0.3732  0.3125  0.3666  11.00000  0.05    0.45
Q7    1  -0.0861  0.3665 -0.0804  11.00000  0.05    0.45
Q8    1   0.1323  0.6748  0.4497  11.00000  0.05    0.45
Q9    1   0.1831  0.3672  0.1520  11.00000  0.05    0.44
Q10   1   0.3738  0.5035  0.6100  11.00000  0.05    0.44
Q11   1   0.2505  0.5016  0.5503  11.00000  0.05    0.44
Q12   1   0.2095  0.6741  0.4476  11.00000  0.05    0.44
Q13   1   0.2857  0.4676  0.5032  11.00000  0.05    0.43
Q14   1   0.2348  0.5142  0.4432  11.00000  0.05    0.43
Q15   1  -0.0219  0.2192  0.0564  11.00000  0.05    0.42
Q16   1  -0.0698  0.2933  0.0686  11.00000  0.05    0.42
Q17   1   0.1236  0.4836  0.1813  11.00000  0.05    0.42
Q18   1   0.3205  0.5249  0.5622  11.00000  0.05    0.42
Q19   1  -0.2152  0.2328  0.2148  11.00000  0.05    0.42
Q20   1   0.0393  0.2049 -0.0712  11.00000  0.05    0.42
;
_shelx_res_checksum              69404
_shelx_hkl_file
;
  -2   0   0   77.83    3.52
  -2   0   0   84.15    3.54
  -2   0   0   78.17    3.50
  -2   0   0   88.12    3.54
  -2   0   0   83.08    3.34
   2   0   0   77.55    3.53
   2   0   0   82.50    3.60
   2   0   0   80.15    3.51
   2   0   0   79.73    3.51
   2   0   0   81.08    3.34
  -4   0   0  353.54   14.58
  -4   0   0  347.44   14.15
   4   0   0  395.31   15.06
   4   0   0  344.66   14.68
  -4   0   0  349.31   14.55
  -6   0   0  325.15   14.92
  -6   0   0  374.12   14.41
   6   0   0  360.82   15.26
  -6   0   0  383.24   15.11
  -6   0   0  347.29   14.94
  -8   0   0  321.10   14.24
  -8   0   0  358.92   14.41
   8   0   0  323.25   14.64
  -8   0   0  339.33   13.48
  -8   0   0  293.13   14.08
 -10   0   0  126.28    7.22
  10   0   0  123.88    7.45
 -10   0   0  127.93    7.07
 -10   0   0  125.22    6.96
 -10   0   0  136.71    6.12
 -12   0   0    2.29    1.57
  12   0   0    2.75    2.15
 -12   0   0    5.15    2.62
 -12   0   0    3.75    2.06
 -12   0   0    1.52    2.04
 -14   0   0   37.63    4.66
 -14   0   0   33.53    4.28
  14   0   0   26.50    5.93
 -14   0   0   33.39    3.57
 -14   0   0   37.76    4.91
 -16   0   0  267.33   14.67
 -16   0   0  268.33   14.50
 -16   0   0  273.76   14.15
  16   0   0  245.89   15.24
 -16   0   0  258.96   14.30
   1  -1   0   68.72    3.11
  -1   1   0   72.12    2.98
  -1   1   0   68.29    3.17
   1   1   0   72.16    2.85
  -1   1   0   70.98    3.23
   1   1   0   64.63    3.07
   1   1   0   74.99    3.10
   1   1   0   77.67    3.05
   3  -1   0  321.67   13.12
  -3  -1   0  310.79   12.90
  -3  -1   0  324.89   12.69
  -3  -1   0  325.62   13.16
  -3  -1   0  320.72   12.99
  -3   1   0  328.26   13.34
  -3   1   0  318.71   13.17
  -3   1   0  301.41   12.95
   3   1   0  359.23   13.00
   3   1   0  290.19   12.94
   3   1   0  341.55   13.22
   3   1   0  320.98   12.68
  -3   1   0  341.77   13.17
  -5  -1   0  201.93    8.43
  -5  -1   0  193.24    7.91
   5  -1   0  196.74    8.71
  -5  -1   0  216.31    8.72
  -5  -1   0  186.68    8.42
  -5   1   0  197.33    8.27
   5   1   0  201.47    8.78
   5   1   0  190.00    7.90
   5   1   0  193.40    8.54
  -5   1   0  184.49    8.38
  -5   1   0  186.95    8.54
  -7  -1   0   32.05    1.92
  -7  -1   0   29.53    2.70
   7  -1   0   37.82    2.97
  -7  -1   0   33.09    2.63
  -7  -1   0   23.98    2.62
  -7   1   0   28.20    2.79
  -7   1   0   29.49    2.27
  -7   1   0   26.89    2.43
   7   1   0   37.94    3.10
  -7   1   0   24.54    2.59
  -9  -1   0   18.10    2.60
  -9  -1   0   19.40    2.59
  -9  -1   0   13.64    2.37
   9  -1   0   17.63    2.69
  -9   1   0   16.45    2.34
  -9   1   0   15.58    2.51
  -9   1   0   19.62    2.22
   9   1   0   18.16    3.02
  -9   1   0   13.65    2.32
 -11  -1   0  211.86    9.99
 -11  -1   0  207.46    9.88
  11  -1   0  177.44   10.11
 -11  -1   0  187.13    8.44
 -11  -1   0  193.56    9.96
 -11   1   0  193.33    9.84
  11   1   0  197.70   10.48
 -11   1   0  190.07   10.01
 -11   1   0  188.60    9.76
 -11   1   0  197.00    8.96
  13  -1   0   66.48    5.88
 -13  -1   0   60.08    5.73
 -13  -1   0   59.18    3.95
 -13  -1   0   65.00    5.23
 -13  -1   0   62.83    5.37
 -13   1   0   55.99    5.26
  13   1   0   66.23    6.14
 -13   1   0   74.51    4.50
 -13   1   0   70.16    5.48
 -13   1   0   62.08    5.96
 -15  -1   0   10.60    4.14
 -15  -1   0   10.83    3.59
  15  -1   0    7.70    4.29
 -15  -1   0   12.58    2.35
 -15   1   0   13.82    4.12
  15   1   0   17.75    4.71
 -15   1   0   12.32    2.63
 -15   1   0   11.05    4.16
 -15   1   0   11.72    3.01
 -17  -1   0    4.48    4.35
 -17  -1   0    0.57    4.11
 -17  -1   0    7.61    4.90
  17  -1   0   -2.47    4.54
  17   1   0    5.08    5.01
 -17   1   0    3.02    4.65
 -17   1   0    0.58    4.05
 -17   1   0    1.25    4.38
   0  -2   0  287.15   11.69
   0  -2   0  308.36   11.67
   0  -2   0  286.90   11.78
   0   2   0  283.26   11.63
   0   2   0  324.88   11.73
   0   2   0  272.25   11.48
   0   2   0  310.67   11.53
   0   2   0  268.76   11.75
  -2  -2   0  378.03   14.55
  -2  -2   0  393.80   15.18
   2  -2   0  379.39   14.87
  -2  -2   0  370.79   14.94
  -2  -2   0  375.68   15.08
   2   2   0  354.97   15.05
  -2   2   0  370.58   15.06
   2   2   0  364.36   14.66
  -2   2   0  354.37   15.08
   2   2   0  381.86   14.88
  -2   2   0  361.30   15.14
  -2   2   0  422.20   14.93
  -4  -2   0    8.12    0.88
  -4  -2   0    6.63    1.22
   4  -2   0    7.01    1.15
  -4  -2   0    6.61    1.04
  -4   2   0    9.02    1.36
  -4   2   0    6.99    1.26
   4   2   0    9.40    0.99
   4   2   0    7.74    0.99
   4   2   0   11.61    1.49
  -6  -2   0  188.43    8.70
  -6  -2   0  198.60    8.23
  -6  -2   0  183.27    8.35
   6  -2   0  197.43    8.66
  -6  -2   0  191.89    7.73
   6   2   0  181.94    7.71
  -6   2   0  172.44    8.55
  -6   2   0  183.84    8.30
   6   2   0  192.90    8.83
   6   2   0  190.30    8.41
  -6   2   0  182.13    8.69
  -8  -2   0  160.17    7.76
  -8  -2   0  147.04    7.33
   8  -2   0  150.47    7.71
  -8  -2   0  155.85    7.26
  -8  -2   0  150.47    6.45
   8   2   0  141.64    7.83
  -8   2   0  147.67    7.70
  -8   2   0  155.03    7.14
  -8   2   0  144.20    7.63
   8   2   0  154.30    6.61
  -8   2   0  145.37    7.27
 -10  -2   0  108.23    6.49
  10  -2   0  105.86    6.61
 -10  -2   0  112.72    6.27
 -10  -2   0  110.14    6.25
 -10   2   0   90.39    6.23
 -10   2   0  108.70    6.70
  10   2   0  112.22    6.99
 -10   2   0  117.26    6.21
 -10   2   0  110.75    5.79
  12  -2   0    7.52    2.60
 -12  -2   0   10.52    2.66
 -12  -2   0    4.43    2.14
 -12  -2   0    2.22    2.07
 -12   2   0    8.83    2.13
 -12   2   0    6.64    2.48
 -12   2   0    5.62    2.45
 -12   2   0    6.03    2.18
  12   2   0   11.12    3.11
 -14  -2   0  139.45    8.55
 -14  -2   0  142.05    8.29
  14  -2   0  103.81   10.51
 -14  -2   0  132.55    8.37
 -14  -2   0  134.78    6.25
  14   2   0  133.00    9.85
 -14   2   0  132.02    8.46
 -14   2   0  124.21    8.01
 -14   2   0  134.80    7.44
 -14   2   0  135.09    8.83
  16  -2   0  108.63    9.82
 -16  -2   0  115.29    9.42
 -16  -2   0  106.40    9.03
 -16  -2   0  119.32    9.38
 -16   2   0  105.19    8.94
 -16   2   0  120.20   11.54
  16   2   0  122.25   10.48
 -16   2   0  105.78    9.36
 -16   2   0  115.25    7.35
  -1  -3   0  117.86    5.18
  -1  -3   0  113.56    5.08
   1  -3   0  111.12    5.05
   1  -3   0  115.07    4.68
   1   3   0  114.64    4.64
   1   3   0  119.23    5.16
  -1   3   0  117.88    5.01
  -1   3   0  109.14    5.04
  -1   3   0  118.82    4.69
   3  -3   0   14.87    1.28
   3  -3   0   13.45    1.77
  -3  -3   0   15.15    1.37
  -3  -3   0   16.09    1.68
  -3  -3   0   13.12    1.57
   3   3   0   15.73    1.71
  -3   3   0   14.88    1.51
  -3   3   0   17.12    1.75
  -3   3   0   14.30    1.55
   3   3   0   10.95    0.95
  -5  -3   0  218.56   10.00
   5  -3   0  223.27    9.70
  -5   3   0  220.86    9.98
   5   3   0  217.74    9.19
   5   3   0  231.27    9.38
   5   3   0  225.26    9.94
  -7  -3   0  148.11    6.49
  -7  -3   0  130.78    6.79
  -7  -3   0  145.90    6.09
   7  -3   0  143.68    7.10
  -7  -3   0  138.48    7.23
   7   3   0  151.41    6.53
   7   3   0  143.43    6.89
  -7   3   0  135.00    6.71
  -7   3   0  135.53    7.18
   7   3   0  136.05    7.25
  -7   3   0  134.25    7.16
   9  -3   0    7.79    2.18
  -9  -3   0   10.88    1.39
  -9  -3   0    8.38    1.84
  -9  -3   0    7.19    1.94
  -9  -3   0   10.70    2.28
  -9   3   0   11.40    2.20
  -9   3   0   10.74    2.40
  -9   3   0    9.67    1.97
   9   3   0    9.31    2.36
  -9   3   0    7.10    1.77
  11  -3   0  131.52    7.98
 -11  -3   0  145.96    6.13
 -11  -3   0  133.63    7.50
 -11  -3   0  143.98    8.08
 -11   3   0  130.32    7.15
 -11   3   0  139.34    8.22
  11   3   0  120.23    8.02
 -11   3   0  134.05    7.43
 -11   3   0  140.92    8.04
 -13  -3   0   41.38    4.41
  13  -3   0   41.61    4.72
 -13  -3   0   49.18    5.42
 -13  -3   0   36.18    4.38
  13   3   0   41.21    5.43
 -13   3   0   46.61    4.46
 -13   3   0   35.97    4.55
 -13   3   0   39.91    4.74
 -13   3   0   42.76    4.14
 -15  -3   0    2.34    3.98
 -15  -3   0    2.51    3.79
  15  -3   0    0.18    3.88
 -15  -3   0    1.81    2.65
 -15   3   0    2.16    2.73
 -15   3   0    0.28    3.67
 -15   3   0    1.19    2.87
  15   3   0   -6.05    3.97
 -15   3   0    9.52    3.91
  17  -3   0    5.33    4.83
 -17  -3   0   10.27    4.83
 -17  -3   0    3.69    4.64
 -17   3   0    4.01    4.54
  17   3   0   10.11    5.64
 -17   3   0    8.34    4.86
 -17   3   0    2.81    3.69
 -17   3   0    0.04    6.33
   0  -4   0   52.51    3.10
   0  -4   0   49.71    2.81
   0  -4   0   55.00    2.94
   0   4   0   51.49    2.59
   0   4   0   54.76    2.41
   0   4   0   51.53    2.55
  -2  -4   0  134.11    6.34
   2  -4   0  145.29    6.74
   2  -4   0  146.41    6.36
  -2  -4   0  143.99    6.42
  -2  -4   0  135.31    6.54
   2  -4   0  139.45    5.84
   2   4   0  147.91    5.72
  -2   4   0  136.93    5.85
  -2   4   0  143.88    6.37
  -2   4   0  138.78    6.58
  -2   4   0  139.33    6.38
  -4  -4   0    1.45    1.12
   4  -4   0   -0.79    0.91
   4  -4   0    0.72    1.11
  -4  -4   0   -0.27    1.08
  -4  -4   0    0.83    0.90
   4   4   0    1.16    0.61
  -4   4   0    0.78    1.00
  -4   4   0    2.11    1.08
   6  -4   0   94.96    5.01
  -6  -4   0   74.83    5.14
  -6  -4   0   96.53    4.20
  -6   4   0   94.98    5.36
  -6   4   0   96.52    5.32
   6   4   0   89.06    5.21
   6   4   0   98.79    4.59
   8  -4   0   20.47    2.57
  -8  -4   0   27.84    3.58
  -8   4   0   19.69    2.54
   8   4   0   24.90    3.26
  -8   4   0   25.76    3.22
  -8   4   0   14.58    2.47
  10  -4   0    2.18    1.95
 -10  -4   0    3.35    2.03
 -10  -4   0   -1.03    1.84
 -10   4   0    0.72    1.76
  10   4   0    5.04    2.46
 -10   4   0    5.81    2.17
 -10   4   0    0.09    1.72
 -10   4   0    2.82    1.62
  12  -4   0   37.78    4.45
 -12  -4   0   40.64    4.40
 -12  -4   0   38.72    3.94
 -12  -4   0   28.07    4.02
 -12   4   0   34.62    4.17
 -12   4   0   37.61    4.17
  12   4   0   30.85    4.20
 -12   4   0   43.19    4.12
 -12   4   0   39.26    4.66
  14  -4   0   21.59    4.01
 -14  -4   0   43.29    5.61
 -14  -4   0   21.56    3.58
 -14  -4   0   19.20    4.81
 -14   4   0   27.59    4.00
 -14   4   0   29.05    5.23
  14   4   0   13.65    4.53
 -14   4   0   23.59    4.35
 -14   4   0   29.66    4.06
 -16  -4   0   41.50    6.54
  16  -4   0   27.47    6.00
 -16   4   0   41.66    4.99
 -16   4   0   39.08    6.91
 -16   4   0   40.60    6.25
  16   4   0   35.43    6.80
 -16   4   0   55.44    5.78
   1  -5   0   36.46    2.84
  -1  -5   0   34.87    2.75
  -1  -5   0   41.43    2.74
   1  -5   0   42.29    2.68
  -1  -5   0   38.00    2.83
   1   5   0   45.15    2.17
  -1   5   0   45.82    2.03
  -1   5   0   42.16    2.52
   1   5   0   40.68    2.18
  -1   5   0   43.15    2.56
  -3  -5   0   15.51    1.86
   3  -5   0   10.84    1.31
  -3  -5   0   15.27    2.08
  -3  -5   0   13.65    1.86
   3  -5   0    9.50    1.78
   3  -5   0   12.86    1.77
  -3   5   0    8.60    1.72
  -3   5   0   14.03    1.89
   3   5   0   11.52    1.04
  -3   5   0   11.26    1.26
  -5  -5   0    2.07    1.34
  -5  -5   0    1.57    1.33
   5  -5   0    1.71    1.09
  -5  -5   0   -0.89    1.17
   5  -5   0    0.44    1.62
   5   5   0    1.90    1.24
  -5   5   0   -0.29    1.30
   5   5   0    1.24    0.76
  -5   5   0   -0.53    1.13
  -7  -5   0    1.80    1.56
   7  -5   0    2.44    1.49
   7  -5   0   -0.36    1.82
  -7   5   0    1.32    1.58
   7   5   0    2.90    1.17
   7   5   0    2.34    1.56
  -7   5   0   -0.67    1.37
  -9  -5   0   14.05    2.11
  -9  -5   0   15.85    2.84
   9  -5   0   11.71    2.32
  -9   5   0   10.59    2.12
  -9   5   0   13.11    2.75
   9   5   0   12.41    2.68
  -9   5   0   11.34    2.62
  11  -5   0   11.13    2.96
 -11  -5   0   10.19    2.80
 -11  -5   0    7.76    2.47
 -11   5   0    6.63    2.10
 -11   5   0    6.58    2.47
  11   5   0    4.54    2.33
 -11   5   0   11.99    2.72
 -11   5   0    8.14    2.51
 -13  -5   0    4.71    3.58
  13  -5   0    6.37    2.98
  13  -5   0   13.63    3.37
 -13   5   0    8.09    3.58
  13   5   0    5.29    3.90
 -13   5   0    4.18    3.06
 -13   5   0    5.19    2.62
 -13   5   0    6.48    2.78
 -15  -5   0   -7.77    3.50
  15  -5   0    1.84    3.70
  15  -5   0   -2.05    4.17
 -15   5   0   -2.26    4.23
 -15   5   0    3.67    4.41
 -15   5   0    0.38    2.95
  15   5   0    0.77    4.61
 -15   5   0   -2.56    2.74
   0  -6   0   28.42    2.67
   0  -6   0   24.94    2.41
   0  -6   0   18.36    2.18
   0   6   0   24.43    1.59
   0   6   0   25.62    1.90
   0   6   0   25.15    1.88
  -2  -6   0    6.48    1.56
  -2  -6   0    4.93    1.54
   2  -6   0    6.94    1.49
  -2  -6   0    7.89    1.63
   2  -6   0    3.80    1.76
   2   6   0    5.15    0.85
  -2   6   0    6.13    1.45
  -2   6   0    5.44    1.28
  -2   6   0    7.71    0.90
  -2   6   0    3.77    1.52
  -4  -6   0   49.65    3.65
   4  -6   0   46.56    3.46
   4  -6   0   46.32    3.98
   4  -6   0   51.42    2.90
  -4  -6   0   42.74    3.62
  -4  -6   0   49.26    3.48
   4   6   0   49.63    3.22
   4   6   0   52.73    2.50
  -4   6   0   48.21    3.82
  -4   6   0   45.91    3.54
  -6  -6   0    1.01    1.51
  -6  -6   0    3.03    1.50
   6  -6   0    0.62    1.30
   6  -6   0    0.25    1.84
  -6  -6   0   -0.84    1.37
  -6   6   0   -1.56    1.30
   6   6   0    0.84    0.90
  -6   6   0   -0.68    1.40
   6   6   0    0.41    1.45
   8  -6   0    7.67    2.08
  -8  -6   0    4.70    1.93
   8  -6   0    8.25    2.46
  -8   6   0    4.87    2.05
   8   6   0   11.07    2.44
   8   6   0    9.90    1.85
  -8   6   0    5.90    2.25
 -10  -6   0    0.51    2.24
  10  -6   0    5.79    2.25
  10  -6   0    1.30    2.14
 -10   6   0    4.43    2.36
  10   6   0    2.21    2.19
 -10   6   0    0.46    1.70
 -10   6   0    3.11    2.10
 -12  -6   0    5.09    3.84
  12  -6   0    2.67    2.29
  12  -6   0    4.15    2.50
 -12   6   0    7.42    2.74
  12   6   0   14.53    3.30
 -12   6   0    7.94    2.83
 -12   6   0    8.42    2.67
  14  -6   0   33.68    5.05
  14  -6   0   28.63    5.63
 -14  -6   0   29.37    5.75
 -14   6   0   25.06    5.63
  14   6   0   34.09    5.82
 -14   6   0   29.59    5.28
 -14   6   0   33.83    4.82
 -14   6   0   36.57    4.55
  16  -6   0   -1.51    4.49
 -16  -6   0    0.91    4.45
  16  -6   0    2.94    4.70
 -16   6   0    3.16    4.54
 -16   6   0    5.95    3.51
  16   6   0    6.20    5.57
 -16   6   0    3.56    4.98
  -1  -7   0    3.81    1.66
   1  -7   0    5.21    1.87
   1  -7   0    4.71    1.47
  -1  -7   0    4.22    1.51
  -1  -7   0    6.48    1.73
   1   7   0    5.84    1.11
  -1   7   0    4.41    0.73
   1   7   0    5.49    1.65
  -1   7   0    3.97    1.29
  -1   7   0    6.21    1.30
   3  -7   0  196.26    8.13
  -3  -7   0  176.30    9.21
   3  -7   0  190.86    9.81
  -3  -7   0  200.92    9.31
  -3  -7   0  200.38    9.61
   3  -7   0  190.57    9.18
  -3   7   0  192.11    9.23
  -3   7   0  202.61    9.82
  -3   7   0  215.67    8.16
   3   7   0  205.45    8.21
  -5  -7   0   21.73    2.64
   5  -7   0   22.15    2.32
   5  -7   0   26.53    3.26
  -5  -7   0   20.40    2.94
  -5  -7   0   26.50    3.08
   5  -7   0   20.00    2.75
  -5   7   0   20.65    3.01
   5   7   0   19.12    2.45
  -5   7   0   20.76    2.75
   5   7   0   23.24    1.73
  -7  -7   0   31.69    3.97
  -7  -7   0   30.51    3.33
   7  -7   0   24.04    3.68
  -7  -7   0   27.15    3.57
   7  -7   0   27.34    3.05
  -7   7   0   26.94    3.64
   7   7   0   21.84    2.36
   7   7   0   28.27    3.28
  -7   7   0   30.15    3.62
   9  -7   0    6.09    2.37
   9  -7   0    5.94    2.08
  -9  -7   0    7.68    2.32
   9   7   0    2.76    1.93
  -9   7   0    2.71    2.05
   9   7   0    6.57    2.18
  -9   7   0    9.14    2.48
  -9   7   0    5.45    2.03
  11  -7   0    0.14    2.41
  11  -7   0    4.97    2.46
  11   7   0   -1.04    2.13
 -11   7   0    1.42    2.68
 -11   7   0    6.04    2.10
  13  -7   0   73.00    6.12
  13  -7   0   60.21    7.54
 -13  -7   0   62.27    7.01
 -13   7   0   63.94    6.19
  13   7   0   58.11    7.04
 -13   7   0   66.74    7.06
 -13   7   0   63.88    5.53
 -13   7   0   46.88    6.46
  15  -7   0   12.72    5.26
 -15  -7   0   19.28    5.88
  15  -7   0    8.12    5.06
 -15   7   0   14.56    5.03
  15   7   0   20.22    5.92
 -15   7   0   24.64    5.62
 -15   7   0   22.98    6.26
 -15   7   0   33.01    4.50
   0  -8   0   64.01    4.19
   0  -8   0   48.65    4.45
   0   8   0   65.44    3.03
   0   8   0   62.32    3.74
   0   8   0   68.56    3.70
  -2  -8   0  108.34    6.05
  -2  -8   0  100.37    6.21
  -2  -8   0  110.78    6.38
   2  -8   0  120.49    6.15
   2  -8   0  102.76    6.61
   2   8   0  111.89    5.21
   2   8   0  117.83    5.11
  -2   8   0  107.19    6.59
  -2   8   0  114.79    5.94
   2   8   0  106.52    5.15
   4  -8   0    0.71    1.67
   4  -8   0    3.39    1.15
   4  -8   0    3.47    2.10
  -4  -8   0    4.94    2.00
  -4  -8   0   -0.65    1.49
  -4  -8   0    4.77    1.79
   4   8   0    1.80    0.90
  -4   8   0    1.90    1.40
   4   8   0    2.33    1.34
  -4   8   0    1.00    1.75
   6  -8   0   84.16    6.09
  -6  -8   0   84.38    5.87
   6  -8   0   80.04    5.69
  -6  -8   0   73.21    5.11
   6  -8   0   76.94    5.36
  -6  -8   0   80.25    5.70
  -6   8   0   79.14    5.58
  -6   8   0   81.07    5.64
   6   8   0   81.14    4.00
   6   8   0   76.87    5.03
  -8  -8   0  106.34    6.43
  -8  -8   0  107.82    7.20
   8  -8   0  100.70    7.18
   8   8   0  112.25    6.65
  -8   8   0  104.49    7.10
   8   8   0  104.12    5.46
  -8   8   0  100.19    6.88
  10  -8   0   28.40    5.64
  10  -8   0   25.35    5.06
  10   8   0   24.35    3.87
 -10   8   0   29.66    3.69
  12  -8   0    0.68    3.72
  12  -8   0   -0.07    3.06
 -12  -8   0    3.30    3.77
 -12   8   0   -0.77    3.26
 -12   8   0    2.13    2.76
 -12   8   0   -0.95    3.51
  12   8   0   -1.53    3.68
  14  -8   0   14.80    4.38
 -14  -8   0   20.87    5.53
  14  -8   0   16.79    5.69
 -14   8   0   22.73    4.07
 -14   8   0   28.03    5.18
  14   8   0    7.93    4.81
 -14   8   0   24.51    5.56
 -14   8   0   11.49    4.63
   1  -9   0   64.80    5.04
   1  -9   0   64.76    4.44
  -1  -9   0   58.67    4.30
  -1  -9   0   56.37    4.88
   1   9   0   68.52    3.80
   1   9   0   64.67    3.81
  -1   9   0   63.45    4.06
  -1   9   0   57.00    4.27
   1   9   0   67.27    3.23
  -3  -9   0  280.77   13.79
  -3  -9   0  283.46   13.36
   3  -9   0  285.28   14.25
   3  -9   0  303.13   13.36
  -3  -9   0  306.97   13.78
   3   9   0  307.93   12.23
   3   9   0  306.31   12.34
  -3   9   0  307.38   13.44
   3   9   0  276.63   12.47
  -3   9   0  291.63   14.05
  -5  -9   0   89.32    6.04
  -5  -9   0   81.25    5.63
   5  -9   0   86.20    6.38
   5  -9   0   85.40    5.66
   5  -9   0   84.12    4.23
  -5  -9   0   85.47    5.75
   5   9   0   86.97    4.07
   5   9   0   74.89    4.91
  -5   9   0   70.22    5.33
  -5   9   0   82.42    6.35
  -7  -9   0   75.78    5.43
  -7  -9   0   76.95    5.80
   7  -9   0   76.27    4.64
   7  -9   0   71.09    5.53
   7  -9   0   67.74    5.96
  -7  -9   0   72.64    5.88
   7   9   0   74.01    5.20
  -7   9   0   78.60    5.74
   7   9   0   70.73    4.15
  -7   9   0   71.56    5.96
  -9  -9   0   47.79    6.60
   9  -9   0   54.53    4.34
   9  -9   0   35.90    5.64
  -9  -9   0   48.64    4.89
  -9   9   0   40.53    5.44
   9   9   0   43.20    4.82
  -9   9   0   56.07    5.97
   9   9   0   42.90    4.25
 -11  -9   0  136.20   10.02
  11  -9   0  129.07    8.09
  11  -9   0  135.78   10.47
  11   9   0  133.21    8.80
 -11   9   0  132.16    9.63
 -11   9   0  146.41    8.09
 -11   9   0  128.89    9.74
  13  -9   0   44.01    6.65
  13  -9   0   46.11    5.30
 -13  -9   0   52.03    7.29
 -13   9   0   47.21    6.60
 -13   9   0   42.62    6.90
 -13   9   0   39.12    6.22
  13   9   0   39.97    6.23
 -13   9   0   49.91    5.50
   0 -10   0  132.81    7.43
   0 -10   0  146.35    8.28
   0  10   0  144.42    7.01
   0  10   0  135.06    7.17
   2 -10   0   35.69    3.80
  -2 -10   0   23.42    3.52
   2 -10   0   34.79    4.32
  -2 -10   0   37.00    3.92
  -2 -10   0   39.96    4.06
   2  10   0   34.96    2.50
   2  10   0   34.74    2.90
   2  10   0   32.12    2.90
  -2  10   0   32.40    4.06
  -2  10   0   34.57    3.35
  -4 -10   0   25.54    3.56
  -4 -10   0   23.44    3.61
  -4 -10   0   27.90    3.81
   4 -10   0   27.90    3.37
   4 -10   0   30.77    4.43
   4  10   0   23.65    2.40
   4  10   0   25.29    2.72
   4  10   0   26.72    2.46
  -4  10   0   25.14    4.35
  -4  10   0   20.15    3.04
   6 -10   0   31.64    2.88
  -6 -10   0   39.97    4.44
   6 -10   0   28.55    4.63
  -6 -10   0   35.67    4.31
   6 -10   0   29.28    3.98
  -6 -10   0   36.41    4.50
   6  10   0   30.09    3.48
  -6  10   0   32.01    4.10
   6  10   0   34.15    2.65
  -6  10   0   41.36    4.75
  -8 -10   0  349.73   15.73
  -8 -10   0  345.32   16.24
  -8 -10   0  311.04   16.59
   8 -10   0  312.05   14.31
   8 -10   0  336.25   15.82
   8 -10   0  328.35   17.34
  -8  10   0  334.22   16.72
  -8  10   0  335.66   17.10
   8  10   0  349.24   15.59
   8  10   0  332.71   14.04
  10 -10   0   61.96    6.22
 -10 -10   0   58.98    7.33
  10 -10   0   74.09    5.68
  10 -10   0   58.01    7.22
 -10  10   0   67.64    7.31
  10  10   0   52.92    5.90
 -10  10   0   76.28    7.51
  12 -10   0   18.10    5.80
 -12 -10   0   26.59    5.59
  12  10   0   34.01    5.62
 -12  10   0   26.10    5.36
 -12  10   0   42.93    5.31
 -12  10   0   22.48    5.16
   1 -11   0   31.52    4.50
  -1 -11   0   31.22    3.79
  -1 -11   0   28.73    4.31
   1 -11   0   39.46    4.02
  -1  11   0   30.22    4.11
   1  11   0   33.08    3.90
  -1  11   0   33.54    3.28
   1  11   0   31.95    3.20
   3 -11   0  155.96    9.41
  -3 -11   0  155.19    8.98
   3 -11   0  147.08    8.33
  -3 -11   0  146.76    8.46
  -3 -11   0  159.26    9.12
   3  11   0  149.13    7.14
  -3  11   0  155.02    8.26
  -3  11   0  141.91    8.90
   3  11   0  156.92    7.23
   3  11   0  157.20    7.37
  -5 -11   0  144.86    8.73
  -5 -11   0  145.84    8.84
  -5 -11   0  141.18    8.53
   5 -11   0  146.29    8.49
   5  11   0  155.61    6.85
  -5  11   0  134.62    8.50
   5  11   0  153.74    6.81
   5  11   0  138.03    7.52
   7 -11   0    8.00    3.78
  -7 -11   0    9.65    2.76
  -7 -11   0    5.69    2.75
  -7 -11   0    7.58    3.97
   7 -11   0    2.05    2.75
  -7  11   0   -0.25    3.39
   7  11   0    4.62    2.54
  -7  11   0    4.11    3.34
   7  11   0    4.88    1.73
   9 -11   0   16.31    4.13
   9 -11   0   16.98    3.10
  -9 -11   0   16.31    4.54
   9 -11   0   10.95    4.68
  -9 -11   0   13.56    3.81
  -9  11   0   13.71    4.52
  -9  11   0   14.74    4.71
   9  11   0   16.12    3.43
  11 -11   0   73.58    6.72
  11 -11   0   79.96    8.69
  11 -11   0   80.29    9.36
 -11 -11   0   78.48    8.83
  11  11   0   71.42    8.41
 -11  11   0   76.58    6.65
 -11  11   0   81.06    8.56
 -11  11   0   85.93    8.89
   0 -12   0   97.23    7.35
   0  12   0  101.70    5.87
   0  12   0   99.51    7.29
   2 -12   0   73.47    7.61
  -2 -12   0   61.58    6.07
  -2  12   0   80.42    8.38
   2  12   0   77.09    4.70
  -2  12   0   78.95    5.36
   4 -12   0   -1.22    3.64
  -4 -12   0    0.77    2.55
  -4 -12   0    2.66    2.88
   4 -12   0    0.24    2.72
   4  12   0    5.19    2.08
   4  12   0   -0.24    1.55
  -4  12   0    0.14    2.70
   4  12   0   -3.34    2.56
  -4  12   0    2.24    3.73
  -6 -12   0   54.30    5.79
  -6 -12   0   49.94    5.61
   6 -12   0   51.34    6.19
   6 -12   0   55.59    7.13
  -6 -12   0   40.92    5.85
   6  12   0   53.03    4.82
  -6  12   0   51.42    6.89
  -6  12   0   53.78    6.23
   6  12   0   53.50    3.61
   8 -12   0   86.40    7.70
   8 -12   0   72.53    8.57
  -8 -12   0   77.48    7.09
  -8 -12   0   84.31    8.45
   8  12   0   79.47    6.41
  -8  12   0   86.80    8.04
  -8  12   0   76.29    8.65
  10 -12   0   24.04    6.19
 -10 -12   0   28.63    6.18
  10 -12   0   25.18    6.19
 -10 -12   0   38.53    5.83
  10  12   0   35.11    5.11
 -10  12   0   32.40    5.93
 -10  12   0   27.72    6.04
  -1 -13   0   17.21    3.49
  -1 -13   0   13.58    4.66
   1 -13   0   18.31    3.60
   1 -13   0   10.16    4.51
   1  13   0   11.77    4.45
  -1  13   0    8.46    4.07
  -1  13   0   11.87    3.51
   1  13   0   14.73    2.54
   3 -13   0   49.24    5.81
   3 -13   0   59.68    7.52
  -3 -13   0   55.26    5.93
   3  13   0   58.05    4.17
  -3  13   0   65.69    7.49
  -3  13   0   49.61    5.91
   5 -13   0   49.81    5.48
  -5 -13   0   47.15    7.07
  -5 -13   0   47.15    6.41
  -5 -13   0   46.02    5.41
   5 -13   0   57.25    7.56
  -5  13   0   40.16    5.42
   5  13   0   49.87    4.27
  -5  13   0   47.74    7.14
   5  13   0   48.44    3.62
  -7 -13   0    1.92    3.85
   7 -13   0    5.33    3.78
   7 -13   0    6.04    4.39
  -7 -13   0   10.23    5.11
  -7 -13   0    5.05    4.25
   7  13   0   -0.31    3.11
  -7  13   0    5.08    3.72
   7  13   0    1.64    1.71
  -7  13   0    3.00    4.27
   0 -14   0    6.21    4.80
   0 -14   0   -4.18    3.23
   0  14   0   -0.43    4.30
   0  14   0    0.33    2.95
   2 -14   0   21.67    5.52
  -2 -14   0   11.40    5.08
  -2 -14   0   16.75    4.24
   2 -14   0   20.37    4.19
   2  14   0   13.18    2.76
  -2  14   0   15.43    3.88
  -2  14   0   23.99    5.61
   4 -14   0    9.91    4.22
  -4 -14   0   14.98    5.11
  -4 -14   0   20.41    4.38
   4 -14   0   13.04    5.23
  -4  14   0   10.39    5.52
   4  14   0   14.06    2.39
  -4  14   0    4.25    3.57
   6 -14   0   40.43    5.82
   6 -14   0   28.90    6.41
  -6 -14   0   25.82    6.00
  -6 -14   0   39.96    6.54
  -6  14   0   13.25    5.90
  -6  14   0   29.99    5.38
   6  14   0   34.43    3.19
 -16   0   1   -0.69    3.61
  16   0  -1    0.05    3.81
 -16   0   1    1.11    3.99
 -16   0   1    1.73    2.94
 -14   0   1   -0.51    2.23
  14   0  -1   -1.88    3.54
 -14   0   1   -1.04    1.92
 -14   0   1    0.01    2.27
 -12   0   1    1.33    2.29
 -12   0   1    0.24    1.59
 -12   0   1    3.05    1.92
 -12   0   1    0.21    2.08
  12   0  -1    0.76    2.12
 -10   0   1   -1.34    1.26
 -10   0   1    0.23    1.75
 -10   0   1    1.99    1.76
 -10   0   1    3.58    1.55
  10   0  -1   -0.55    1.90
  -8   0   1   -0.37    1.18
  -8   0   1    1.78    1.05
   8   0  -1    1.97    1.40
  -8   0   1   -1.75    1.39
  -8   0   1    1.81    1.26
  -6   0   1   -1.05    0.73
  -6   0   1    1.44    1.02
   6   0  -1   -0.72    1.02
  -6   0   1   -0.16    1.02
  -6   0   1   -0.01    0.89
  -4   0   1   -0.04    0.67
  -4   0   1    0.78    0.57
   4   0  -1   -0.20    0.85
   4   0  -1   -0.07    0.73
  -4   0   1    0.43    0.67
  -4   0   1    0.47    0.61
   2   0  -1   -0.31    0.40
   2   0  -1    0.16    0.35
  -2   0   1   -0.46    0.34
   2   0  -1    0.33    0.43
  -2   0   1    0.52    0.37
  -2   0   1    0.05    0.30
  -2   0   1   -0.19    0.60
   2   0  -1    0.70    0.53
  -2   0   1    0.02    0.39
   2   0  -1   -0.58    0.38
   2   0  -1    0.12    0.28
  -2   0  -1   -0.26    0.37
  -2   0  -1   -0.02    0.41
  -2   0  -1   -0.02    0.56
  -2   0  -1    0.14    0.23
   2   0   1    0.12    0.33
   2   0   1   -0.65    0.53
   2   0   1    0.39    0.42
  -2   0  -1   -0.02    0.30
  -2   0  -1    0.44    0.48
   2   0   1   -0.75    0.40
   4   0   1   -0.92    1.06
   4   0   1    0.51    0.75
  -4   0  -1   -0.44    0.61
  -4   0  -1    0.52    0.74
  -4   0  -1    0.23    0.54
  -6   0  -1    0.18    0.59
  -6   0  -1   -0.76    0.82
   6   0   1   -1.38    0.99
  -6   0  -1   -0.67    0.90
  -6   0  -1    0.56    1.08
   8   0   1    0.64    1.61
  -8   0  -1   -0.50    1.25
  -8   0  -1    0.67    1.21
  -8   0  -1    1.16    0.83
  -8   0  -1    0.50    1.40
 -10   0  -1   -1.19    1.55
 -10   0  -1   -0.61    1.75
  10   0   1   -1.22    1.81
 -10   0  -1    1.83    1.22
 -10   0  -1   -0.20    1.39
 -12   0  -1    0.04    1.93
 -12   0  -1   -1.63    2.31
  12   0   1   -1.70    2.26
 -12   0  -1    0.08    1.49
 -14   0  -1    0.51    1.80
 -14   0  -1    1.95    3.10
 -14   0  -1    3.00    2.53
  14   0   1    1.29    3.69
 -14   0  -1   -0.18    2.44
  16   0   1   -0.06    4.38
 -16   0  -1   -4.83    4.17
 -16   0  -1   -1.11    3.93
 -16   0  -1    2.21    3.68
  17  -1  -1   10.94    4.93
 -17  -1   1    1.07    4.81
 -17  -1   1    5.72    4.27
 -17  -1   1    4.47    4.48
 -17   1   1    3.39    4.68
  17   1  -1    4.61    4.80
 -17   1   1    7.69    4.63
 -17   1   1   -1.80    4.43
 -17   1   1   -1.28    3.16
 -15  -1   1   13.74    2.71
  15  -1  -1   10.34    4.29
 -15  -1   1   20.98    3.96
 -15  -1   1   13.51    4.14
 -15  -1   1   14.32    4.12
  15   1  -1   17.32    4.88
 -15   1   1   14.94    3.54
 -15   1   1   17.75    5.01
 -15   1   1   17.50    3.10
 -15   1   1   22.19    4.97
 -13  -1   1    2.76    2.11
 -13  -1   1    2.26    1.65
  13  -1  -1    1.73    2.27
 -13  -1   1   -1.09    1.95
 -13  -1   1    5.17    2.92
 -13   1   1   -1.63    2.29
 -13   1   1    0.12    1.98
  13   1  -1   -0.36    2.58
 -13   1   1   -3.87    2.62
 -13   1   1    2.66    2.02
 -11  -1   1    2.03    1.83
 -11  -1   1    1.74    1.79
 -11  -1   1    1.76    2.16
  11  -1  -1    3.94    2.69
 -11  -1   1    3.80    1.60
 -11   1   1    2.67    1.79
 -11   1   1    4.70    1.96
 -11   1   1    0.41    1.69
 -11   1   1    6.56    2.39
  11   1  -1    2.47    2.48
  -9  -1   1   37.48    3.23
  -9  -1   1   40.16    3.49
  -9  -1   1   31.45    3.23
   9  -1  -1   32.31    3.55
  -9  -1   1   30.65    2.64
  -9   1   1   39.74    3.60
   9   1  -1   34.72    3.57
  -9   1   1   33.22    2.93
  -9   1   1   34.91    3.06
  -9   1   1   32.85    3.42
   7  -1  -1  153.70    7.42
  -7  -1   1  140.49    7.08
  -7  -1   1  154.43    7.04
  -7  -1   1  148.76    7.07
  -7  -1   1  145.82    6.48
  -7   1   1  138.76    7.16
  -7   1   1  148.49    6.86
  -7   1   1  146.30    7.23
  -7   1   1  144.02    6.73
   7   1  -1  139.32    7.30
  -5  -1   1   72.82    4.05
  -5  -1   1   81.79    4.16
  -5  -1   1   81.13    4.08
  -5  -1   1   79.48    3.77
   5  -1  -1   81.08    4.33
   5   1  -1   80.10    4.29
  -5   1   1   83.25    4.26
  -5   1   1   76.84    3.92
  -5   1   1   84.52    4.29
  -3  -1   1   26.30    1.67
  -3  -1   1   21.17    1.79
  -3  -1   1   23.95    1.46
   3  -1  -1   26.38    1.43
   3  -1  -1   25.48    1.62
  -3  -1   1   25.69    1.56
   3  -1  -1   25.85    1.79
  -3   1   1   24.90    1.63
  -3   1   1   23.03    1.66
   3   1  -1   22.62    1.62
  -3   1   1   24.49    1.36
   3   1  -1   25.46    1.58
   3   1  -1   20.33    1.76
   1  -1  -1   47.96    2.29
  -1  -1   1   49.04    2.22
   1  -1  -1   51.79    2.36
   1  -1  -1   46.61    2.25
   1  -1  -1   48.15    2.29
  -1  -1   1   51.70    2.26
  -1  -1   1   50.06    2.28
   1  -1  -1   49.63    2.29
   1   1  -1   49.10    2.30
  -1   1   1   50.66    2.27
   1   1  -1   48.10    2.32
  -1   1   1   47.01    2.28
   1   1  -1   51.59    2.26
  -1   1   1   47.53    2.30
  -1   1   1   49.91    2.33
  -1   1   1   49.74    2.28
   1   1  -1   44.82    2.22
  -1  -1  -1   47.48    2.31
  -1  -1  -1   49.77    2.08
  -1  -1  -1   50.10    2.39
   1  -1   1   49.35    2.43
  -1  -1  -1   46.94    2.38
   1  -1   1   49.50    2.38
  -1   1  -1   51.23    2.43
  -1   1  -1   51.13    2.39
   1   1   1   50.07    2.43
   1   1   1   50.05    2.44
   1   1   1   50.48    2.13
   1   1   1   50.91    2.13
   1   1   1   49.25    2.11
   1   1   1   48.77    2.33
  -3  -1  -1   41.14    2.72
  -3  -1  -1   46.43    2.24
  -3  -1  -1   44.71    2.15
  -3  -1  -1   38.03    2.49
  -3   1  -1   47.67    2.41
  -3   1  -1   43.69    2.48
   3   1   1   44.86    2.30
   3   1   1   45.06    2.29
   3   1   1   42.31    2.19
   5  -1   1   14.35    1.75
  -5  -1  -1   13.42    1.49
  -5  -1  -1   11.49    1.67
  -5  -1  -1   11.78    1.33
   5  -1   1   10.79    1.58
  -5   1  -1   13.93    1.62
  -5   1  -1    9.04    1.41
   5   1   1   11.29    1.43
  -5   1  -1    8.70    1.32
   5   1   1   10.23    1.51
  -7  -1  -1    4.57    0.67
  -7  -1  -1    3.19    1.31
   7  -1   1    4.17    1.47
  -7  -1  -1    5.09    1.38
  -7   1  -1    4.14    1.40
   7   1   1    5.13    1.68
  -7   1  -1    1.93    1.35
  -7   1  -1    3.67    1.09
  -7   1  -1    2.66    1.26
  -9  -1  -1    1.42    1.33
  -9  -1  -1   -1.73    1.22
  -9  -1  -1    0.23    0.75
   9  -1   1    1.38    1.50
  -9  -1  -1    0.20    1.59
  -9   1  -1    2.25    1.24
  -9   1  -1    0.99    1.59
  -9   1  -1    4.18    1.55
  -9   1  -1   -1.62    1.22
   9   1   1   -0.22    1.71
 -11  -1  -1  132.21    7.51
 -11  -1  -1  131.25    5.60
  11  -1   1  120.24    7.68
 -11  -1  -1  136.80    7.65
 -11  -1  -1  121.83    7.10
 -11   1  -1  132.83    6.31
 -11   1  -1  132.19    7.58
  11   1   1  125.38    7.86
 -11   1  -1  121.32    7.32
 -11   1  -1  120.68    7.23
 -13  -1  -1    1.86    2.10
  13  -1   1    3.28    2.37
 -13  -1  -1    1.91    2.16
 -13  -1  -1    4.62    2.89
 -13  -1  -1    2.02    1.31
 -13   1  -1    0.91    2.65
 -13   1  -1    1.21    1.85
  13   1   1    0.74    2.33
 -13   1  -1   -4.83    2.19
 -13   1  -1    5.11    2.17
  15  -1   1    7.71    4.79
 -15  -1  -1   14.66    4.19
 -15  -1  -1   15.07    3.43
  15   1   1    8.88    4.56
 -15   1  -1   14.67    4.28
 -15   1  -1   13.40    3.99
 -15   1  -1   16.47    2.74
 -15   1  -1   16.04    3.69
  17  -1   1   16.98    5.16
 -17  -1  -1    9.55    4.54
 -17  -1  -1    7.23    4.88
 -17  -1  -1    6.07    5.44
  17   1   1    7.58    5.59
 -17   1  -1   -0.98    4.46
 -17   1  -1    3.02    4.47
 -17   1  -1   10.14    5.26
 -16  -2   1   18.58    4.51
  16  -2  -1   25.92    5.63
 -16  -2   1   42.78    5.81
 -16  -2   1   31.89    5.62
  16   2  -1   40.64    6.65
 -16   2   1   27.48    5.41
 -16   2   1   33.33    5.46
 -16   2   1   30.83    4.10
 -16   2   1   32.45    4.55
 -14  -2   1   -0.05    1.98
 -14  -2   1   -2.11    2.44
 -14  -2   1   -1.58    2.08
 -14  -2   1    1.49    3.12
 -14   2   1    0.58    2.19
  14   2  -1    4.02    4.09
 -14   2   1    1.71    2.93
 -14   2   1    2.49    2.90
 -14   2   1   -1.78    2.20
  12  -2  -1    8.88    2.48
 -12  -2   1   10.82    1.82
 -12  -2   1   15.42    2.98
 -12  -2   1    9.05    2.63
 -12  -2   1    6.51    2.63
 -12   2   1    8.24    2.28
 -12   2   1    8.64    2.45
 -12   2   1   12.83    2.50
  12   2  -1   15.29    3.38
 -12   2   1    9.38    2.86
  10  -2  -1   28.10    3.47
 -10  -2   1   25.33    3.11
 -10  -2   1   27.90    3.23
 -10  -2   1   20.98    3.12
 -10  -2   1   22.87    2.47
 -10   2   1   27.83    2.93
  10   2  -1   26.71    3.82
 -10   2   1   23.55    3.38
 -10   2   1   26.40    3.39
 -10   2   1   27.79    2.96
  -8  -2   1  320.06   14.95
  -8  -2   1  351.64   14.27
  -8  -2   1  359.00   15.25
  -8  -2   1  345.92   14.81
   8  -2  -1  370.55   15.41
  -8   2   1  347.39   14.73
  -8   2   1  356.88   15.39
   8   2  -1  336.22   15.40
  -8   2   1  332.42   15.18
  -8   2   1  349.23   14.71
  -6  -2   1    0.28    1.01
   6  -2  -1    1.18    1.15
  -6  -2   1    0.79    0.82
  -6  -2   1    0.20    1.07
  -6  -2   1    1.56    1.06
  -6   2   1    1.67    1.22
  -6   2   1    1.19    1.10
  -6   2   1    0.73    0.78
  -6   2   1    1.49    1.04
   6   2  -1   -1.16    1.12
  -4  -2   1  346.44   14.31
  -4  -2   1  355.50   14.65
   4  -2  -1  364.36   14.69
  -4  -2   1  338.66   14.69
  -4  -2   1  344.59   14.34
   4  -2  -1  367.28   14.81
  -4   2   1  367.52   14.66
  -4   2   1  363.54   14.79
  -4   2   1  350.10   14.21
   4   2  -1  376.77   14.80
   4   2  -1  363.04   14.17
  -4   2   1  354.96   14.78
   4   2  -1  338.51   14.42
  -2  -2   1   27.22    2.07
  -2  -2   1   30.56    1.47
  -2  -2   1   30.10    1.74
   2  -2  -1   29.15    1.88
   2  -2  -1   27.92    1.75
  -2  -2   1   26.66    1.87
   2   2  -1   28.01    1.76
   2   2  -1   32.95    1.77
  -2   2   1   25.98    1.77
   2   2  -1   30.54    1.61
  -2   2   1   27.63    1.86
   2   2  -1   28.70    1.87
  -2   2   1   30.41    1.90
   2   2  -1   30.82    1.48
   0  -2  -1  183.34    7.51
   0  -2   1  200.85    7.01
   0  -2  -1  179.60    7.01
   0  -2   1  174.33    7.28
   0  -2  -1  153.92    7.38
   0  -2  -1  163.00    7.19
   0   2  -1  176.46    7.00
   0   2  -1  186.67    7.00
   0   2   1  171.70    7.25
   0   2  -1  183.39    7.32
   0   2   1  186.75    7.23
   0   2   1  184.89    7.08
   0   2   1  182.22    7.30
   0   2   1  160.17    7.40
  -2  -2  -1   16.02    1.42
   2  -2   1   16.02    1.40
  -2  -2  -1   15.12    1.33
  -2  -2  -1   14.79    1.63
  -2   2  -1   16.54    1.66
   2   2   1   16.52    0.87
   2   2   1   16.91    0.86
  -2   2  -1   14.51    1.35
  -4  -2  -1   37.87    2.22
  -4  -2  -1   37.61    2.65
   4  -2   1   41.52    2.46
  -4  -2  -1   37.86    2.75
   4   2   1   40.53    1.75
  -4   2  -1   36.76    2.53
   4   2   1   42.10    2.22
   4   2   1   39.19    2.20
  -4   2  -1   41.90    2.72
   6  -2   1  257.23   10.92
  -6  -2  -1  226.96   10.93
  -6  -2  -1  240.59   10.51
  -6  -2  -1  244.29   10.41
  -6   2  -1  278.70   10.95
   6   2   1  221.08   10.52
  -6   2  -1  257.33   10.94
  -6   2  -1  248.35   11.05
  -8  -2  -1   19.80    2.29
  -8  -2  -1   22.68    2.75
  -8  -2  -1   24.54    2.69
   8  -2   1   24.37    2.95
  -8   2  -1   23.12    2.70
  -8   2  -1   25.34    2.72
  -8   2  -1   26.31    3.08
   8   2   1   27.36    3.06
 -10  -2  -1   29.10    3.28
 -10  -2  -1   19.86    3.07
  10  -2   1   24.12    3.14
 -10  -2  -1   20.12    2.64
 -10   2  -1   24.60    2.76
 -10   2  -1   21.12    2.87
  10   2   1   18.78    3.12
 -10   2  -1   20.86    3.10
 -10   2  -1   25.25    3.39
  12  -2   1   68.22    5.46
 -12  -2  -1   70.12    5.56
 -12  -2  -1   66.61    5.06
 -12  -2  -1   64.14    5.35
 -12   2  -1   63.00    5.00
  12   2   1   55.44    5.34
 -12   2  -1   66.11    5.81
 -12   2  -1   60.57    5.28
 -14  -2  -1   43.27    5.97
 -14  -2  -1   54.92    6.06
 -14  -2  -1   51.56    5.18
 -14   2  -1   61.18    4.68
 -14   2  -1   58.81    5.47
 -14   2  -1   62.91    5.49
 -14   2  -1   59.86    6.36
  14   2   1   55.47    7.07
 -16  -2  -1    6.72    4.44
  16  -2   1   -1.50    4.13
 -16  -2  -1    6.19    4.12
 -16  -2  -1   -0.62    3.58
 -16   2  -1    0.80    2.82
 -16   2  -1    8.70    4.43
 -16   2  -1   -0.55    3.87
  16   2   1    5.28    4.62
 -16   2  -1    0.36    4.29
  17  -3  -1   15.47    5.35
 -17  -3   1   20.59    5.26
 -17  -3   1   23.13    5.68
  17  -3  -1    9.49    5.26
 -17   3   1   11.74    6.33
 -17   3   1   16.73    3.99
 -17   3   1   16.99    5.44
  17   3  -1    5.88    5.13
 -15  -3   1   61.25    6.90
 -15  -3   1   65.70    7.27
  15  -3  -1   69.39    7.83
  15  -3  -1   77.73    6.37
 -15  -3   1   75.16    7.66
 -15  -3   1   67.08    4.85
 -15   3   1   57.10    5.73
 -15   3   1   53.81    6.80
 -15   3   1   55.51    5.70
 -15   3   1   55.34    6.66
  15   3  -1   83.14    8.31
 -13  -3   1  108.71    7.58
  13  -3  -1   96.71    7.09
 -13  -3   1  111.60    7.38
 -13  -3   1  112.74    5.78
 -13  -3   1  104.18    6.86
 -13   3   1  115.50    6.81
 -13   3   1  105.39    6.53
 -13   3   1  108.33    7.72
 -13   3   1  103.93    7.24
  13   3  -1   93.05    7.75
  11  -3  -1   47.28    4.55
 -11  -3   1   55.69    3.59
 -11  -3   1   53.72    4.80
 -11  -3   1   65.87    4.92
 -11  -3   1   51.01    4.50
 -11   3   1   54.26    4.07
 -11   3   1   57.70    5.02
  11   3  -1   44.27    4.62
 -11   3   1   48.11    4.74
 -11   3   1   53.32    4.20
  -9  -3   1   23.96    3.20
  -9  -3   1   25.81    2.78
  -9  -3   1   25.26    2.94
  -9  -3   1   23.39    2.31
   9  -3  -1   25.08    3.16
  -9   3   1   25.36    2.61
  -9   3   1   19.26    2.61
   9   3  -1   23.29    3.16
  -9   3   1   19.97    2.76
  -9   3   1   20.98    2.95
  -7  -3   1   63.59    4.18
  -7  -3   1   62.93    3.75
  -7  -3   1   62.22    4.11
   7  -3  -1   66.75    4.18
  -7  -3   1   67.79    3.55
  -7   3   1   64.10    4.30
  -7   3   1   65.71    4.06
  -7   3   1   67.70    4.30
  -7   3   1   64.92    3.59
   7   3  -1   71.03    4.48
  -5  -3   1  334.99   13.65
  -5  -3   1  340.68   13.56
   5  -3  -1  357.45   14.12
   5  -3  -1  342.18   14.36
  -5  -3   1  320.38   14.22
   5   3  -1  336.25   13.74
   5   3  -1  310.76   14.09
  -5   3   1  314.68   14.19
  -5   3   1  347.05   13.56
  -5   3   1  326.83   14.22
  -3  -3   1   92.15    4.48
  -3  -3   1   93.79    4.25
  -3  -3   1   93.94    4.75
   3  -3  -1   98.18    4.89
   3  -3  -1   96.72    4.55
  -3   3   1   98.50    4.68
   3   3  -1   99.43    4.29
  -3   3   1  108.82    4.85
   3   3  -1   99.15    4.84
   3   3  -1   82.11    4.23
  -1  -3   1   17.14    1.18
  -1  -3   1   19.33    1.38
  -1  -3   1   14.88    1.55
   1  -3  -1   17.61    1.26
   1  -3  -1   18.09    1.62
   1  -3  -1   19.59    1.20
  -1   3   1   14.80    1.36
   1   3  -1   14.04    1.49
   1   3  -1   16.95    1.08
   1   3  -1   17.11    1.24
  -1   3   1   16.77    1.23
   1   3  -1   17.36    1.26
   1  -3   1  253.56   10.36
   1  -3   1  254.03   10.60
  -1  -3  -1  266.52   10.69
  -1  -3  -1  244.08   10.79
   1  -3   1  276.49   10.91
  -1  -3  -1  243.22   11.05
  -1   3  -1  258.26   10.70
  -1   3  -1  273.11   10.71
  -3  -3  -1  427.25   17.21
   3  -3   1  367.15   17.45
   3  -3   1  427.42   16.73
  -3  -3  -1  454.35   17.34
  -3  -3  -1  412.10   17.12
  -3   3  -1  398.60   17.17
   3   3   1  447.21   16.41
  -3   3  -1  417.25   17.24
   3   3   1  418.10   16.42
   5  -3   1  182.29    8.11
  -5  -3  -1  181.90    7.47
  -5  -3  -1  178.57    8.44
  -5  -3  -1  177.88    8.57
  -5   3  -1  174.87    8.36
   5   3   1  191.57    7.78
   5   3   1  179.93    7.73
  -5   3  -1  172.18    8.45
   5   3   1  196.23    7.44
  -7  -3  -1    7.58    1.59
   7  -3   1    6.26    1.67
  -7  -3  -1    8.35    1.97
   7   3   1    8.65    0.75
  -7   3  -1    5.09    1.65
  -7   3  -1    6.44    1.84
  -7   3  -1    7.78    1.65
   7   3   1    9.55    1.70
   9  -3   1  191.24    9.53
  -9  -3  -1  210.27   10.60
  -9  -3  -1  200.63    9.85
  -9  -3  -1  189.98    8.99
  -9   3  -1  187.64    9.42
  -9   3  -1  185.16    9.71
  -9   3  -1  181.53    9.23
   9   3   1  185.23    9.74
  11  -3   1   83.37    6.09
 -11  -3  -1   94.01    5.65
 -11  -3  -1   88.37    6.19
 -11  -3  -1   96.65    5.95
  11   3   1   86.48    6.43
 -11   3  -1   88.82    5.92
 -11   3  -1   88.43    6.39
 -11   3  -1   91.58    5.49
 -11   3  -1   95.89    6.15
  13  -3   1   11.98    3.37
 -13  -3  -1   23.18    3.73
 -13  -3  -1   18.63    3.23
 -13  -3  -1   17.91    3.05
  13   3   1   21.33    3.85
 -13   3  -1   18.94    3.51
 -13   3  -1   17.50    3.73
 -13   3  -1   21.01    2.95
 -13   3  -1   18.69    3.42
 -15  -3  -1   10.90    4.23
  15  -3   1    7.27    4.51
 -15  -3  -1    1.71    2.76
 -15  -3  -1    1.94    3.51
 -15   3  -1    1.31    2.46
 -15   3  -1   -0.82    2.66
 -15   3  -1    4.18    3.66
 -15   3  -1   -0.91    3.85
  15   3   1    2.74    4.33
 -17  -3  -1   37.07    6.72
  17  -3   1   32.60    6.46
 -17  -3  -1   39.37    6.12
 -17   3  -1   48.89    4.89
  17   3   1   34.06    6.81
 -17   3  -1   42.88    6.58
 -17   3  -1   23.15    5.58
 -17   3  -1   31.63    7.60
  16  -4  -1   75.57    8.59
 -16  -4   1   65.02    7.79
  16  -4  -1   48.76    7.19
  16   4  -1   68.69    8.72
 -16   4   1   55.26    7.89
 -16   4   1   59.88    7.51
 -16   4   1   67.14    6.18
 -16   4   1   63.30    6.58
 -14  -4   1   23.39    4.25
  14  -4  -1   14.68    5.88
 -14  -4   1   11.63    3.07
 -14  -4   1    8.81    3.93
  14  -4  -1   11.98    3.40
 -14   4   1   17.78    3.35
 -14   4   1   14.73    3.97
  14   4  -1   13.22    5.01
 -14   4   1   14.99    3.26
 -14   4   1   15.28    4.36
 -12  -4   1   88.07    5.93
  12  -4  -1   76.59    6.07
 -12  -4   1   85.18    4.69
  12  -4  -1   72.08    6.02
 -12  -4   1   81.86    5.96
 -12  -4   1   71.09    5.75
  12   4  -1   82.89    6.39
 -12   4   1   74.62    6.25
 -12   4   1   86.74    5.45
 -12   4   1   73.61    6.19
 -12   4   1   84.32    5.64
 -10  -4   1  200.87    9.53
  10  -4  -1  193.97   10.19
  10  -4  -1  205.89   10.52
 -10  -4   1  199.08   10.40
 -10  -4   1  206.50    9.02
 -10   4   1  200.62   10.50
 -10   4   1  195.75   10.40
  10   4  -1  213.98   10.66
 -10   4   1  203.07    9.95
 -10   4   1  206.14    9.50
   8  -4  -1   94.21    5.51
  -8  -4   1   87.52    5.74
  -8  -4   1   95.34    4.82
   8  -4  -1   89.03    5.79
  -8   4   1   92.18    5.49
   8   4  -1   90.61    5.81
  -8   4   1   98.77    5.88
  -8   4   1   95.95    4.88
  -8   4   1   95.25    5.93
   6  -4  -1   10.85    1.92
  -6  -4   1   15.40    2.27
   6  -4  -1   10.87    2.06
  -6   4   1   10.43    1.32
  -6   4   1    8.99    1.83
   6   4  -1   10.53    2.12
   6   4  -1    8.69    1.47
  -6   4   1    7.69    1.58
   4  -4  -1   55.88    3.32
  -4  -4   1   59.25    3.48
  -4  -4   1   64.59    3.80
  -4  -4   1   63.57    2.81
   4  -4  -1   60.34    3.88
  -4  -4   1   52.59    3.35
  -4   4   1   54.84    3.52
   4   4  -1   62.44    3.06
  -4   4   1   53.70    3.56
   4   4  -1   58.94    3.45
  -2  -4   1  175.26    6.80
  -2  -4   1  168.72    7.23
   2  -4  -1  158.34    7.08
  -2  -4   1  172.17    7.65
   2  -4  -1  161.24    7.72
   2  -4  -1  173.45    7.57
  -2   4   1  164.86    7.59
   2   4  -1  172.80    7.03
  -2   4   1  156.17    7.00
   2   4  -1  171.57    7.10
  -2   4   1  165.60    7.33
  -2   4   1  166.74    7.15
   0  -4   1  203.73    8.35
   0  -4  -1  201.44    8.93
   0  -4   1  231.27    8.93
   0  -4  -1  204.08    8.79
   0   4  -1  217.62    8.57
   0   4   1  180.93    8.64
   0   4  -1  171.48    8.25
   0   4  -1  216.49    8.57
   0   4   1  197.95    8.40
  -2  -4  -1   20.80    1.98
   2  -4   1   20.46    1.17
   2  -4   1   16.16    2.03
  -2  -4  -1   18.22    1.91
   2  -4   1   23.57    1.91
  -2  -4  -1   21.17    1.97
  -2   4  -1   21.23    1.91
  -4  -4  -1   40.33    3.03
   4  -4   1   39.38    2.51
  -4  -4  -1   39.59    2.95
  -4  -4  -1   43.69    3.22
   4   4   1   41.45    2.04
  -4   4  -1   42.80    3.10
  -4   4  -1   41.09    3.04
   4   4   1   42.82    2.05
  -6  -4  -1  502.68   21.79
  -6  -4  -1  506.74   21.77
  -6  -4  -1  504.29   21.44
   6  -4   1  524.48   21.23
   6   4   1  525.41   20.79
  -6   4  -1  523.29   21.72
  -6   4  -1  534.50   21.90
   6   4   1  522.33   20.53
   8  -4   1  112.17    6.14
  -8  -4  -1  131.12    5.35
  -8  -4  -1  106.96    6.49
   8   4   1  106.16    4.73
  -8   4  -1  105.66    5.98
  -8   4  -1  110.30    6.58
  -8   4  -1  108.41    6.43
   8   4   1  103.80    6.41
   8   4   1  108.29    5.74
  10  -4   1   13.71    2.78
 -10  -4  -1    9.68    2.59
  10   4   1    8.72    2.63
 -10   4  -1   12.73    2.63
 -10   4  -1   14.27    2.61
 -10   4  -1   11.26    2.80
 -12  -4  -1   28.94    4.08
  12  -4   1   29.09    4.29
 -12  -4  -1   25.66    3.53
 -12  -4  -1   34.59    3.95
 -12   4  -1   27.53    3.91
 -12   4  -1   24.92    3.22
 -12   4  -1   20.66    3.59
  12   4   1   27.71    4.37
 -12   4  -1   29.74    3.85
 -14  -4  -1   57.59    5.39
  14  -4   1   53.64    6.11
 -14  -4  -1   55.72    6.90
 -14   4  -1   50.09    4.86
 -14   4  -1   53.23    5.47
  14   4   1   46.73    6.52
 -14   4  -1   47.40    5.82
 -14   4  -1   46.82    5.80
  16  -4   1   53.24    7.17
 -16  -4  -1   45.13    7.02
 -16   4  -1   57.34    7.23
 -16   4  -1   56.44    7.77
 -16   4  -1   52.27    5.94
  16   4   1   73.58    8.71
 -16   4  -1   60.26    7.92
  15  -5  -1   46.14    6.52
 -15  -5   1   49.25    6.94
  15  -5  -1   65.26    7.76
 -15   5   1   67.59    7.92
 -15   5   1   46.77    6.83
  15   5  -1   58.09    7.35
 -15   5   1   58.79    5.52
  13  -5  -1  138.02    8.79
  13  -5  -1  136.29    8.58
 -13  -5   1  120.95   10.53
 -13   5   1  126.45    8.68
 -13   5   1  144.52    8.18
  13   5  -1  142.99   13.74
 -13   5   1  144.61    7.72
 -13   5   1  138.34    9.45
  11  -5  -1   83.77    5.98
  11  -5  -1   71.80    5.89
 -11  -5   1   79.73    6.00
 -11   5   1   88.63    6.18
 -11   5   1   77.76    6.15
 -11   5   1   73.59    5.58
 -11   5   1   74.25    4.94
  11   5  -1   84.39    6.22
   9  -5  -1   12.69    2.43
  -9  -5   1    9.27    2.36
   9  -5  -1   14.90    3.03
  -9   5   1   13.21    2.08
  -9   5   1   13.51    2.76
  -9   5   1   10.90    2.40
  -9   5   1   10.43    2.50
   9   5  -1   12.54    2.74
   7  -5  -1   88.22    5.32
   7  -5  -1   91.09    5.91
  -7  -5   1   98.37    5.79
  -7  -5   1   89.12    4.53
  -7   5   1   98.66    5.88
  -7   5   1   99.51    4.82
   7   5  -1  105.35    5.72
   7   5  -1   95.17    5.13
  -7   5   1   93.55    5.70
  -5  -5   1  357.73   14.24
   5  -5  -1  340.22   14.33
  -5  -5   1  336.21   14.96
   5  -5  -1  327.31   15.09
  -5   5   1  337.40   14.79
   5   5  -1  326.99   14.50
   5   5  -1  358.70   13.99
  -5   5   1  335.66   14.87
   3  -5  -1  241.05   11.49
   3  -5  -1  249.41   11.21
  -3  -5   1  286.10   11.01
  -3  -5   1  274.73   11.54
  -3  -5   1  256.57   10.99
  -3   5   1  250.69   11.11
   3   5  -1  239.79   10.76
   3   5  -1  266.07   10.55
  -3   5   1  241.43   11.37
   1  -5  -1   67.99    4.14
  -1  -5   1   68.54    3.57
   1  -5  -1   69.71    3.67
  -1  -5   1   72.27    3.24
  -1  -5   1   62.09    3.99
  -1  -5   1   72.20    3.95
   1  -5  -1   73.45    3.98
   1   5  -1   76.15    3.55
   1   5  -1   75.42    3.18
  -1   5   1   64.95    3.43
  -1   5   1   72.65    4.00
  -1   5   1   68.19    3.52
   1  -5   1  106.59    5.65
  -1  -5  -1  110.16    5.49
   1  -5   1  110.33    5.00
  -1  -5  -1  101.00    5.31
  -1   5  -1  110.05    5.25
  -1   5  -1  112.96    5.33
   1   5   1  111.54    4.57
   3  -5   1  469.98   17.29
  -3  -5  -1  397.64   18.11
   3  -5   1  431.76   18.53
  -3  -5  -1  445.25   18.32
  -3  -5  -1  438.29   18.29
  -3   5  -1  436.36   18.25
  -3   5  -1  435.70   18.43
  -5  -5  -1  108.72    5.92
  -5  -5  -1  123.76    6.27
  -5  -5  -1  114.80    6.26
   5  -5   1  107.74    5.39
  -5   5  -1  115.07    6.17
   5   5   1  109.31    4.89
  -5   5  -1  117.11    6.29
   7  -5   1    4.35    1.64
  -7  -5  -1    2.86    1.87
  -7  -5  -1    3.81    1.63
  -7   5  -1    2.16    1.66
  -7   5  -1    4.40    1.69
   7   5   1   -0.46    1.03
   9  -5   1   89.28    5.69
  -9  -5  -1   83.06    5.96
  -9   5  -1   95.67    6.20
   9   5   1   90.39    5.42
  -9   5  -1   90.66    6.23
   9   5   1  105.03    6.46
  -9   5  -1   93.32    5.60
   9   5   1   94.21    4.27
  11  -5   1  170.97    9.50
 -11  -5  -1  185.49   10.01
 -11  -5  -1  181.71    8.42
 -11   5  -1  164.87    9.52
  11   5   1  180.13    9.94
 -11   5  -1  177.55    9.27
 -11   5  -1  179.67   10.17
  13  -5   1  100.89    7.24
  13   5   1  105.00    8.73
 -13   5  -1  107.50    6.91
 -13   5  -1  108.61    7.06
 -13   5  -1   99.75    7.74
  15  -5   1    2.95    4.25
 -15  -5  -1   -2.16    3.96
 -15   5  -1    2.04    4.69
 -15   5  -1    0.60    3.06
  15   5   1    0.22    4.25
 -15   5  -1    1.76    3.98
 -15   5  -1   -0.38    2.88
  16  -6  -1   22.87    5.99
  16  -6  -1   21.86    5.92
 -16  -6   1   13.71    5.68
 -16   6   1   25.02    5.74
 -16   6   1   22.96    5.43
 -16   6   1   26.64    4.24
  16   6  -1   22.89    6.41
 -16   6   1   30.74    6.63
  14  -6  -1   26.43    5.57
 -14  -6   1   22.46    5.18
  14   6  -1   39.35    6.37
 -14   6   1   30.12    5.68
 -14   6   1   33.69    5.26
 -14   6   1   34.89    4.57
 -14   6   1   39.33    4.70
  12  -6  -1   14.15    3.27
  12  -6  -1    8.29    2.99
 -12   6   1   14.07    3.02
 -12   6   1    7.37    4.06
 -12   6   1    8.37    2.63
  12   6  -1   10.42    3.03
 -12   6   1    6.25    2.88
 -10  -6   1  316.36   15.55
 -10  -6   1  332.73   14.11
  10  -6  -1  324.83   15.77
  10  -6  -1  330.80   15.05
 -10   6   1  315.37   15.14
 -10   6   1  336.27   14.22
  10   6  -1  331.36   15.47
 -10   6   1  311.83   15.52
 -10   6   1  336.05   15.78
   8  -6  -1  179.95    9.81
  -8  -6   1  193.99    9.91
   8  -6  -1  184.85    9.19
  -8   6   1  180.35    9.75
  -8   6   1  191.02    8.55
  -8   6   1  184.26    9.71
   8   6  -1  186.16    9.48
   8   6  -1  189.89    8.87
  -6  -6   1    2.14    1.56
   6  -6  -1    1.87    1.66
   6  -6  -1    3.52    1.49
  -6  -6   1    1.96    1.39
   6   6  -1    4.05    1.65
  -6   6   1    0.87    1.51
  -6   6   1    2.39    1.68
   6   6  -1    1.37    1.13
  -4  -6   1   56.79    3.58
  -4  -6   1   58.56    3.86
  -4  -6   1   61.22    4.28
   4  -6  -1   57.59    4.31
   4  -6  -1   55.46    3.98
   4  -6  -1   62.02    3.42
  -4   6   1   57.70    4.13
   4   6  -1   58.54    3.55
  -4   6   1   58.60    3.93
   4   6  -1   56.21    3.13
   2  -6  -1  574.62   23.38
  -2  -6   1  580.02   22.98
  -2  -6   1  547.54   23.53
   2  -6  -1  595.43   22.60
   2  -6  -1  582.91   23.82
  -2  -6   1  579.33   23.27
   2   6  -1  570.55   22.64
   2   6  -1  550.14   22.54
  -2   6   1  561.98   23.03
  -2   6   1  537.55   23.46
   0  -6  -1  130.21    6.33
   0  -6  -1  153.95    6.98
   0  -6   1  109.95    6.44
   0  -6   1  127.72    6.02
   0  -6  -1  131.19    6.50
   0   6   1  131.41    5.78
   0   6  -1  129.74    6.08
   0   6  -1  131.59    6.13
  -2  -6  -1    1.48    1.39
  -2  -6  -1    0.09    1.16
   2  -6   1    1.74    1.12
   2  -6   1    2.71    1.47
  -2  -6  -1    1.42    1.18
  -2   6  -1    1.01    0.97
   2   6   1    2.82    0.48
   2   6   1    1.93    0.46
  -4  -6  -1    7.77    1.91
   4  -6   1    6.26    1.19
   4  -6   1    6.34    1.88
  -4  -6  -1    8.35    1.74
  -4  -6  -1    9.34    1.86
  -4   6  -1    4.27    1.61
  -4   6  -1    4.49    1.55
  -6  -6  -1  172.29    8.86
  -6  -6  -1  164.26    8.39
   6  -6   1  165.60    9.03
  -6  -6  -1  185.42    8.95
   6  -6   1  176.29    7.91
  -6   6  -1  171.39    8.85
   6   6   1  172.05    7.30
  -6   6  -1  161.77    8.66
  -8  -6  -1  243.95   12.07
  -8  -6  -1  229.72   11.85
   8  -6   1  244.26   11.14
   8   6   1  247.35   11.80
  -8   6  -1  229.31   11.83
  -8   6  -1  261.82   12.23
   8   6   1  243.06   10.53
 -10  -6  -1   -1.00    2.06
  10  -6   1    1.38    2.14
 -10   6  -1    2.19    2.23
  10   6   1    4.77    2.37
 -10   6  -1    2.34    1.84
 -10   6  -1    4.30    2.28
  10   6   1   -1.48    2.47
 -12  -6  -1    8.12    3.51
  12  -6   1   13.58    3.27
 -12   6  -1   15.38    3.23
 -12   6  -1   12.13    2.90
 -12   6  -1   13.92    3.80
  12   6   1   10.60    2.97
  14  -6   1  124.89    9.85
 -14  -6  -1  144.35   10.53
  14  -6   1  134.45    9.04
 -14   6  -1  132.67    8.44
  14   6   1  127.33   10.30
 -14   6  -1  151.84    9.14
 -14   6  -1  142.49   10.06
 -14   6  -1  116.47   10.34
 -16  -6  -1   97.61    9.65
  16  -6   1   86.99    9.50
  16  -6   1   90.75    9.78
 -16   6  -1   91.07   10.37
 -16   6  -1   90.96    8.27
 -16   6  -1   67.17    8.03
 -16   6  -1   78.15    9.38
  16   6   1   86.52    9.98
  15  -7  -1   78.62    9.15
 -15  -7   1   83.66    9.03
  15  -7  -1   75.37    9.21
 -15   7   1  101.66    9.26
 -15   7   1   76.45    9.41
  15   7  -1   85.98    9.37
 -15   7   1   80.38    6.73
 -15   7   1   82.13    8.61
  13  -7  -1   61.78    6.26
  13  -7  -1   59.94    7.39
 -13  -7   1   72.00    7.55
 -13   7   1   68.32    6.25
  13   7  -1   52.58    6.88
 -13   7   1   61.15    5.31
 -13   7   1   44.87    6.27
 -13   7   1   61.83    7.18
  11  -7  -1   15.30    3.40
  11  -7  -1   19.65    3.46
  11   7  -1   23.68    3.96
 -11   7   1   20.87    2.78
 -11   7   1   19.70    3.45
 -11   7   1   24.60    4.26
  -9  -7   1    1.00    2.12
   9  -7  -1    1.51    2.02
   9  -7  -1    2.18    2.31
  -9   7   1   -0.64    1.98
  -9   7   1    0.64    2.12
   9   7  -1    0.78    2.35
  -9   7   1   -1.02    1.58
   9   7  -1    2.04    2.13
  -7  -7   1   81.16    4.75
   7  -7  -1   60.30    5.24
   7  -7  -1   75.40    4.70
  -7  -7   1   66.88    5.28
   7   7  -1   76.86    5.08
  -7   7   1   73.77    5.24
  -7   7   1   75.61    5.52
   7   7  -1   73.43    4.20
  -5  -7   1  266.19   12.50
   5  -7  -1  277.38   12.20
   5  -7  -1  285.65   13.06
   5  -7  -1  290.17   13.65
  -5  -7   1  288.00   12.88
  -5  -7   1  295.70   13.48
   5   7  -1  302.51   12.62
  -5   7   1  280.78   13.31
   5   7  -1  295.92   11.95
  -5   7   1  282.19   13.05
   3  -7  -1   80.44    4.87
  -3  -7   1   88.57    4.71
   3  -7  -1   67.57    5.00
  -3  -7   1   71.99    4.65
   3  -7  -1   75.96    5.29
  -3  -7   1   82.32    5.19
   3   7  -1   83.34    3.97
  -3   7   1   79.90    4.58
   3   7  -1   79.74    4.12
  -3   7   1   76.24    5.10
  -1  -7   1    6.66    1.86
   1  -7  -1    9.77    2.18
  -1  -7   1    8.94    1.67
   1  -7  -1   12.78    2.03
   1   7  -1   10.57    1.42
   1   7  -1    8.87    0.92
  -1   7   1    6.88    1.57
  -1   7   1    6.50    1.27
  -1   7   1    6.75    1.36
   1   7  -1    6.39    1.40
  -1  -7  -1  280.43   12.77
   1  -7   1  295.58   12.00
  -1  -7  -1  275.52   12.41
   1  -7   1  284.19   12.79
  -1  -7  -1  310.56   12.60
  -1   7  -1  272.70   12.15
  -1   7  -1  242.44   12.02
   1   7   1  291.25   11.39
   1   7   1  269.39   11.43
   3  -7   1  271.93   12.24
  -3  -7  -1  298.00   12.88
  -3  -7  -1  282.95   12.81
   3  -7   1  270.54   13.10
  -3  -7  -1  268.03   12.69
   3   7   1  296.72   11.20
  -3   7  -1  298.51   13.21
  -3   7  -1  273.73   12.61
  -5  -7  -1    1.88    1.74
  -5  -7  -1    2.42    1.64
  -5  -7  -1    0.53    1.62
   5  -7   1    2.57    1.95
   5   7   1    2.30    0.69
  -5   7  -1    3.30    1.91
  -5   7  -1   -0.08    1.30
   7  -7   1   -0.05    1.57
  -7  -7  -1   -0.62    1.56
  -7  -7  -1    0.74    1.93
  -7  -7  -1    1.30    1.93
   7  -7   1   -1.23    2.06
   7   7   1    2.32    1.77
  -7   7  -1    0.15    1.82
   7   7   1   -0.37    1.00
  -7   7  -1   -2.21    1.69
   9  -7   1   55.47    5.42
   9  -7   1   57.43    4.48
  -9  -7  -1   59.75    5.35
  -9   7  -1   53.70    5.06
  -9   7  -1   47.27    4.96
   9   7   1   59.47    4.16
   9   7   1   58.38    5.07
  11  -7   1  137.87    8.15
 -11  -7  -1  138.07   10.36
  11  -7   1  149.11   12.85
 -11   7  -1  149.50    8.24
 -11   7  -1  138.00    9.15
  11   7   1  140.86    8.72
  13  -7   1   83.24    6.75
 -13  -7  -1   75.01    7.75
  13  -7   1   80.79    8.22
 -13   7  -1   82.46    6.80
 -13   7  -1   83.40    7.78
 -13   7  -1   86.10    8.39
 -13   7  -1   79.72    6.34
  13   7   1  107.24    8.76
  15  -7   1   14.29    5.42
 -15  -7  -1   11.24    4.96
  15  -7   1   17.67    5.49
 -15   7  -1   18.73    4.34
 -15   7  -1   16.74    5.29
 -15   7  -1   12.43    4.79
  15   7   1   21.97    6.15
 -15   7  -1   22.81    5.95
  14  -8  -1   -0.49    4.43
 -14  -8   1   -3.05    4.24
 -14   8   1    5.02    4.01
  14   8  -1   -1.35    4.34
 -14   8   1    4.10    4.36
 -14   8   1   -1.00    3.12
 -14   8   1   -0.54    4.36
 -12  -8   1   54.09    6.41
  12  -8  -1   39.43    5.50
  12  -8  -1   49.46    6.66
 -12   8   1   43.37    5.64
 -12   8   1   47.79    6.26
 -12   8   1   45.62    4.57
 -12   8   1   41.85    5.72
  10  -8  -1   46.10    5.45
  10  -8  -1   49.51    4.85
  10   8  -1   49.99    5.01
 -10   8   1   50.71    4.09
  -8  -8   1   49.86    5.14
   8  -8  -1   48.61    5.11
   8  -8  -1   55.79    4.18
  -8  -8   1   50.22    4.35
   8   8  -1   56.60    4.27
  -8   8   1   52.01    4.71
   8   8  -1   56.02    4.74
  -8   8   1   50.76    5.12
  -6  -8   1    6.60    2.31
   6  -8  -1    3.27    2.37
  -6  -8   1    6.10    2.08
  -6  -8   1    4.90    1.98
   6  -8  -1    9.58    2.52
   6  -8  -1    7.14    1.91
  -6   8   1    8.15    2.23
   6   8  -1    3.79    1.71
  -6   8   1    5.78    2.28
   6   8  -1    8.65    1.45
   4  -8  -1   62.73    4.72
  -4  -8   1   68.56    4.98
   4  -8  -1   64.92    3.79
   4  -8  -1   61.53    5.23
  -4  -8   1   64.18    4.49
  -4  -8   1   71.71    4.62
   4   8  -1   64.79    3.98
  -4   8   1   60.40    4.96
   4   8  -1   72.32    3.63
  -4   8   1   68.46    4.55
  -2  -8   1    8.58    1.90
   2  -8  -1   11.02    2.48
  -2  -8   1    6.79    1.95
   2  -8  -1    6.93    2.00
  -2  -8   1   11.99    2.54
   2   8  -1    7.41    1.22
  -2   8   1    6.38    1.86
   2   8  -1   11.38    1.39
   2   8  -1    9.02    1.49
  -2   8   1   11.50    2.47
  -2   8   1    9.05    1.76
   0  -8  -1  132.73    6.85
   0  -8   1  147.37    7.34
   0  -8  -1  122.60    7.33
   0  -8   1  127.18    6.44
   0  -8  -1  126.88    6.88
   0   8   1  127.50    5.95
   0   8  -1  129.25    6.41
   0   8  -1  126.18    6.50
   0   8   1  133.48    6.14
  -2  -8  -1   30.79    3.30
  -2  -8  -1   37.86    3.44
   2  -8   1   36.80    3.83
  -2  -8  -1   26.94    3.42
   2  -8   1   35.75    3.11
   2   8   1   36.00    2.16
   2   8   1   32.65    2.09
  -2   8  -1   42.66    3.30
   4  -8   1  206.26   10.07
  -4  -8  -1  211.36   10.60
  -4  -8  -1  214.15   10.65
   4  -8   1  239.93   11.38
  -4  -8  -1  210.66   10.70
   4   8   1  223.95    8.79
  -4   8  -1  218.97   10.63
  -4   8  -1  223.52   11.01
   6  -8   1   98.86    4.89
   6  -8   1   91.46    5.78
  -6  -8  -1  103.66    6.52
  -6  -8  -1  110.30    6.32
   6  -8   1   89.03    6.75
  -6  -8  -1   88.31    6.21
   6   8   1   98.64    4.46
  -6   8  -1   94.27    6.22
  -6   8  -1  103.21    6.72
  -8  -8  -1   12.88    2.92
  -8  -8  -1   17.25    3.40
   8  -8   1   13.57    2.51
  -8  -8  -1   12.52    2.93
   8  -8   1   12.56    3.20
   8   8   1   16.86    2.95
   8   8   1   22.92    2.43
  -8   8  -1   17.59    3.33
  -8   8  -1   18.90    3.39
 -10  -8  -1    0.24    3.36
  10  -8   1    3.08    2.21
  10   8   1   -0.55    2.24
 -12  -8  -1   64.64    7.45
  12  -8   1   75.41    6.06
  12  -8   1   67.50    7.86
  12   8   1   73.07    7.67
 -12   8  -1   59.04    7.39
 -12   8  -1   76.15    6.10
 -12   8  -1   64.96    7.51
  14  -8   1   16.00    4.48
 -14  -8  -1    7.81    4.86
  14  -8   1   16.87    5.48
 -14   8  -1   22.74    5.37
 -14   8  -1   13.85    4.98
 -14   8  -1    3.69    4.92
  14   8   1   17.52    5.42
 -14   8  -1   10.85    3.60
 -13  -9   1   25.08    5.50
  13  -9  -1   28.49    4.55
  13  -9  -1   23.74    5.76
  13   9  -1   22.30    5.20
 -13   9   1   23.49    5.47
 -13   9   1   16.88    5.06
 -13   9   1   14.91    4.83
 -13   9   1   33.62    4.05
  11  -9  -1    5.66    2.91
  11  -9  -1    2.51    3.81
 -11  -9   1    3.87    3.37
 -11   9   1    2.74    3.70
 -11   9   1   -2.45    3.43
  11   9  -1    0.46    2.70
 -11   9   1   -1.82    2.37
 -11   9   1    1.27    3.19
   9  -9  -1    0.20    2.18
   9  -9  -1    2.66    3.71
  -9  -9   1    1.88    3.10
  -9  -9   1    4.38    2.41
   9  -9  -1   -0.39    2.29
  -9   9   1    1.05    2.88
  -9   9   1    1.29    3.23
   9   9  -1   -3.65    2.26
  -7  -9   1   10.82    2.93
   7  -9  -1   10.28    2.28
   7  -9  -1    8.92    2.71
   7  -9  -1    9.98    2.96
  -7  -9   1    9.97    2.60
   7   9  -1   10.44    2.39
   7   9  -1    7.82    1.93
  -7   9   1   13.55    2.77
  -7   9   1    9.74    2.64
   5  -9  -1   13.64    1.88
  -5  -9   1   10.24    2.72
   5  -9  -1    9.52    2.47
   5  -9  -1    6.28    2.47
  -5  -9   1   10.86    2.49
  -5  -9   1   10.00    2.36
   5   9  -1    5.74    1.49
  -5   9   1    6.03    2.63
  -5   9   1    8.05    2.00
   5   9  -1    9.10    2.10
  -3  -9   1   96.39    5.92
   3  -9  -1   96.40    6.34
  -3  -9   1   94.17    5.61
  -3  -9   1   93.08    6.23
   3  -9  -1   91.49    5.85
   3   9  -1   94.63    4.94
  -3   9   1   87.24    6.09
   3   9  -1   92.03    4.86
   3   9  -1   92.02    4.73
  -3   9   1   99.17    5.59
   1  -9  -1   16.71    2.97
  -1  -9   1   20.07    2.44
   1  -9  -1   11.14    2.32
  -1  -9   1   21.30    3.13
  -1   9   1   16.26    2.09
   1   9  -1   14.56    2.22
  -1   9   1   17.16    2.85
   1   9  -1   15.08    2.02
  -1   9   1   13.25    1.99
   1  -9   1  107.55    5.61
   1  -9   1   94.05    6.20
  -1  -9  -1  101.53    5.97
  -1  -9  -1   95.95    6.21
  -1  -9  -1   86.69    5.90
   1   9   1  103.54    4.86
   1   9   1  102.64    4.97
  -1   9  -1   98.67    5.61
   3  -9   1   95.97    5.47
   3  -9   1   82.02    6.25
  -3  -9  -1   91.13    5.87
  -3  -9  -1   88.50    6.00
  -3  -9  -1   91.46    5.98
  -3   9  -1   86.78    5.61
   3   9   1   94.91    4.24
   3   9   1   92.09    4.17
  -3   9  -1   86.24    6.25
  -5  -9  -1   11.33    2.72
  -5  -9  -1   13.39    2.73
   5  -9   1   12.42    2.44
  -5  -9  -1   10.92    2.53
   5  -9   1    8.87    2.83
  -5   9  -1   14.73    2.58
  -5   9  -1    7.84    2.69
  -7  -9  -1    8.66    2.89
  -7  -9  -1    1.15    2.20
  -7  -9  -1   -0.31    2.37
   7  -9   1    3.94    2.27
   7  -9   1    4.08    1.83
   7   9   1    6.08    1.23
  -7   9  -1    0.31    2.36
   7   9   1    3.85    2.32
  -7   9  -1    4.76    2.14
   9  -9   1    3.09    3.66
  -9  -9  -1    6.41    2.93
   9  -9   1    7.95    2.38
  -9  -9  -1    2.12    2.56
  -9  -9  -1    4.62    3.09
   9   9   1    7.61    1.96
  -9   9  -1    9.40    3.66
   9   9   1    6.80    2.62
  -9   9  -1    6.15    3.41
 -11  -9  -1   39.43    6.21
  11  -9   1   37.35    6.16
  11  -9   1   48.88    5.21
  11   9   1   32.61    5.93
 -11   9  -1   41.28    5.09
 -11   9  -1   48.96    6.55
 -11   9  -1   34.92    5.47
  13  -9   1   -0.87    3.55
 -13  -9  -1    6.49    4.30
  13  -9   1    5.98    4.58
 -13   9  -1    7.46    4.66
 -13   9  -1    2.73    3.90
 -13   9  -1    2.36    3.30
  13   9   1    1.96    4.50
 -12 -10   1   -4.21    3.23
  12 -10  -1    2.19    4.75
  12 -10  -1   -0.27    3.58
  12 -10  -1    1.21    4.41
 -12  10   1    8.92    4.36
 -12  10   1   -5.44    4.04
 -12  10   1   -1.58    2.74
 -12  10   1    1.03    4.01
  12  10  -1    6.55    4.45
  10 -10  -1   19.76    3.50
  10 -10  -1   10.07    4.32
  10 -10  -1   18.29    5.40
 -10 -10   1    8.21    4.26
 -10  10   1    6.88    4.13
 -10  10   1    8.74    3.91
 -10  10   1   18.71    3.06
  10  10  -1   13.61    3.33
  -8 -10   1    1.40    2.41
   8 -10  -1    3.19    2.55
  -8 -10   1    4.10    3.44
   8 -10  -1   -0.32    2.27
   8 -10  -1    1.21    3.55
   8  10  -1    2.70    2.48
  -8  10   1    1.58    3.13
  -8  10   1   -1.35    3.13
   6 -10  -1   -0.32    2.25
  -6 -10   1    1.54    2.09
  -6 -10   1    2.21    2.24
  -6 -10   1   -0.45    2.00
   6 -10  -1    4.05    1.94
  -6  10   1   -4.69    2.13
  -6  10   1    1.19    1.84
   6  10  -1   -0.14    1.80
   6  10  -1   -0.92    1.92
  -4 -10   1    7.20    2.45
   4 -10  -1    9.55    2.78
  -4 -10   1    8.49    2.37
   4 -10  -1   12.27    3.18
  -4 -10   1   11.71    2.77
   4  10  -1   16.76    2.12
  -4  10   1   15.00    2.61
  -4  10   1    8.69    2.76
   4  10  -1   16.69    2.11
   2 -10  -1    4.39    2.40
   2 -10  -1    5.46    2.12
  -2 -10   1    1.71    2.08
  -2 -10   1    2.45    1.91
   2  10  -1   -0.39    1.34
  -2  10   1   -1.99    1.43
   2  10  -1    1.76    1.40
   2  10  -1    0.94    1.00
  -2  10   1    2.05    1.64
  -2  10   1    0.93    2.10
   2  10  -1    6.30    1.94
   0 -10   1    8.37    2.14
   0 -10  -1    9.58    2.82
   0 -10   1    5.05    2.48
   0 -10  -1   11.43    2.33
   0  10   1    7.21    2.24
   0  10  -1    7.13    2.55
   0  10  -1    9.28    1.94
   0  10   1    3.12    1.80
   0  10   1    5.66    1.56
   2 -10   1    0.92    2.07
  -2 -10  -1    2.11    2.09
   2 -10   1    3.00    1.90
  -2 -10  -1    0.50    2.05
  -2 -10  -1    2.74    2.25
  -2  10  -1   -1.25    1.66
   2  10   1   -0.06    1.32
   2  10   1    0.94    1.08
  -2  10  -1    4.56    2.45
  -4 -10  -1    3.56    2.47
  -4 -10  -1    2.32    2.47
   4 -10   1    3.32    2.10
  -4 -10  -1    4.87    2.40
   4 -10   1    3.64    2.53
  -4  10  -1    2.57    1.83
   4  10   1    6.21    1.17
  -4  10  -1    7.02    2.62
   4  10   1    5.75    1.19
  -6 -10  -1    9.84    2.65
   6 -10   1    4.17    2.62
   6 -10   1    5.20    2.39
  -6 -10  -1   10.07    2.96
  -6 -10  -1    5.58    2.59
  -6  10  -1    9.11    2.66
   6  10   1    3.26    2.22
   6  10   1    8.27    1.17
  -6  10  -1    4.81    2.79
   8 -10   1    3.64    2.09
  -8 -10  -1   -0.96    2.48
  -8 -10  -1    7.73    2.71
   8 -10   1   10.07    4.20
  -8 -10  -1    5.51    3.72
   8 -10   1    4.46    2.74
   8  10   1    8.45    2.96
   8  10   1    7.39    1.72
  -8  10  -1    7.60    4.04
  -8  10  -1   -5.43    3.28
  10 -10   1    3.36    2.74
  10 -10   1    5.61    2.97
  10 -10   1   -0.67    3.58
 -10 -10  -1    3.50    3.98
 -10  10  -1    2.88    3.95
 -10  10  -1    2.62    4.18
  10  10   1   -1.81    2.56
  12 -10   1   -1.49    4.60
 -12 -10  -1    3.23    4.32
  12 -10   1   -0.41    3.25
 -12  10  -1   -1.14    3.27
 -12  10  -1    4.48    4.89
  12  10   1    2.93    4.17
 -12  10  -1   -1.45    4.22
 -11 -11   1    3.58    4.25
  11 -11  -1   -0.57    4.34
  11 -11  -1    0.64    3.48
  11 -11  -1   -1.00    4.19
 -11  11   1    5.61    4.22
  11  11  -1   -4.19    7.53
 -11  11   1   -3.81    4.14
 -11  11   1    0.90    2.78
 -11  11   1    4.33    4.42
   9 -11  -1    8.02    4.66
   9 -11  -1   10.07    3.15
  -9 -11   1   12.95    3.62
   9 -11  -1    7.96    3.79
  -9 -11   1    4.45    4.12
   9  11  -1   10.18    3.14
  -9  11   1    7.01    3.84
  -9  11   1   -2.23    3.96
  -7 -11   1   16.18    3.50
   7 -11  -1   23.29    3.62
  -7 -11   1   18.54    4.77
   7 -11  -1   21.93    4.95
   7  11  -1   23.30    3.32
  -7  11   1   15.93    3.94
  -7  11   1   25.07    5.07
  -5 -11   1    6.64    2.80
   5 -11  -1    0.84    3.10
   5 -11  -1   -3.83    2.44
  -5 -11   1    6.02    2.52
  -5 -11   1    3.96    2.72
   5  11  -1    2.76    2.04
   5  11  -1    4.37    1.66
  -5  11   1    1.31    3.81
   5  11  -1    5.77    1.92
  -5  11   1    6.64    2.31
  -3 -11   1    3.60    2.52
   3 -11  -1   -0.33    2.14
   3 -11  -1    0.44    2.68
   3  11  -1    0.61    1.91
  -3  11   1   -0.33    1.81
  -3  11   1   -0.85    2.31
   3  11  -1    0.75    1.54
  -1 -11   1   19.52    3.53
  -1 -11   1   12.77    3.83
   1 -11  -1   16.77    3.27
   1 -11  -1   26.10    4.20
   1  11  -1   19.48    2.59
  -1  11   1   16.42    3.12
   1  11  -1   17.73    4.50
  -1  11   1   20.11    2.56
  -1 -11  -1    0.25    2.26
   1 -11   1    1.01    2.06
  -1 -11  -1   -0.22    2.26
   1 -11   1    2.09    2.23
   1  11   1    2.48    1.49
   1  11   1   -0.17    1.95
  -1  11  -1    2.18    2.03
  -1  11  -1    3.70    1.84
  -3 -11  -1  116.66    7.66
   3 -11   1  102.85    7.47
  -3 -11  -1  108.58    7.32
   3 -11   1  116.33    6.82
  -3 -11  -1  115.04    7.26
  -3  11  -1  113.66    6.95
  -3  11  -1  124.52    7.95
   3  11   1  118.78    5.51
   3  11   1  109.08    5.44
   3  11   1  115.33    6.02
  -5 -11  -1    0.97    2.48
   5 -11   1    0.77    2.32
  -5 -11  -1    0.22    2.63
  -5 -11  -1   -0.39    2.38
   5  11   1   -0.18    1.05
  -5  11  -1    3.97    3.80
   5  11   1    1.60    2.09
   7 -11   1   24.58    5.24
  -7 -11  -1   17.32    4.60
   7 -11   1   27.84    4.54
  -7 -11  -1   23.66    3.91
  -7 -11  -1   14.98    3.57
  -7  11  -1   22.58    5.10
   7  11   1   20.41    3.53
  -7  11  -1   14.08    4.11
   9 -11   1    4.97    4.10
  -9 -11  -1    6.22    4.34
  -9 -11  -1    7.54    4.39
   9 -11   1    4.42    3.31
  -9  11  -1   14.01    4.54
   9  11   1    5.58    3.18
  -9  11  -1   13.60    4.26
  11 -11   1   -6.63    4.37
  11 -11   1    0.53    4.25
 -11 -11  -1   -0.12    4.27
  11  11   1    5.47    4.68
 -11  11  -1   -2.33    3.92
 -11  11  -1    6.39    4.48
  10 -12  -1   -8.19    4.05
 -10 -12   1   -0.78    4.06
  10 -12  -1    0.50    4.68
 -10  12   1   -2.56    3.76
 -10  12   1    9.12    4.80
 -10  12   1    2.37    2.95
  10  12  -1    4.51    3.48
  -8 -12   1   24.52    4.54
  -8 -12   1   16.72    4.90
   8 -12  -1   26.16    4.95
   8 -12  -1   20.14    5.08
  -8  12   1   10.89    4.54
  -8  12   1   17.78    4.67
   8  12  -1   16.56    3.47
   6 -12  -1   -0.81    3.49
   6 -12  -1    0.36    2.75
  -6 -12   1    4.33    2.85
  -6 -12   1    2.81    3.86
  -6  12   1    9.21    4.21
   6  12  -1    6.27    2.46
   6  12  -1    0.04    1.74
  -6  12   1   -0.88    2.99
   4 -12  -1    0.44    4.00
  -4 -12   1    3.13    2.65
  -4 -12   1    3.85    2.49
   4 -12  -1    1.79    2.55
   4  12  -1   -1.19    1.77
  -4  12   1    3.93    3.96
   4  12  -1    0.56    1.87
  -4  12   1    3.92    3.15
  -2 -12   1   27.95    3.59
  -2 -12   1   26.13    4.19
   2 -12  -1   16.26    3.48
   2 -12  -1   20.88    4.61
   2  12  -1   25.01    2.93
  -2  12   1   31.15    7.13
  -2  12   1   18.06    2.95
   0 -12  -1   95.15    6.56
   0 -12   1   82.19    6.80
   0 -12  -1   79.93    7.16
   0 -12   1   80.07    5.96
   0  12   1   92.51    6.91
   0  12   1   87.55    5.29
   0  12  -1   92.31    5.75
   2 -12   1    1.57    3.40
  -2 -12  -1    0.48    2.57
   2 -12   1   -0.10    2.41
  -2 -12  -1   -0.93    2.46
   2  12   1    2.25    1.76
  -2  12  -1    0.90    1.86
  -2  12  -1    2.44    3.59
   2  12   1    3.11    2.40
   2  12   1    1.68    1.65
   4 -12   1   57.20    5.25
   4 -12   1   48.78    6.68
  -4 -12  -1   55.28    5.80
  -4 -12  -1   65.58    5.74
  -4 -12  -1   61.10    5.86
   4  12   1   52.97    3.47
   4  12   1   55.06    3.31
  -4  12  -1   54.76    6.77
   4  12   1   56.56    4.49
  -4  12  -1   50.07    6.04
  -6 -12  -1   21.50    4.16
  -6 -12  -1   14.28    3.68
   6 -12   1   17.46    5.09
   6 -12   1   21.68    3.71
  -6 -12  -1   14.96    4.77
  -6  12  -1   19.78    4.35
   6  12   1   15.56    3.21
  -6  12  -1   18.50    4.89
   8 -12   1    1.82    3.30
   8 -12   1    4.67    4.32
  -8 -12  -1    1.54    4.54
  -8 -12  -1   -0.48    3.48
  -8 -12  -1    2.40    4.34
  -8  12  -1   -0.67    3.57
  -8  12  -1   -1.09    3.90
   8  12   1   -1.29    2.96
 -10 -12  -1    2.80    4.58
  10 -12   1    4.57    5.04
  10  12   1    0.09    5.18
 -10  12  -1    3.82    4.36
 -10  12  -1    1.45    4.08
  -7 -13   1   62.11    6.90
  -7 -13   1   63.31    7.71
   7 -13  -1   53.26    7.62
   7  13  -1   61.22    5.47
  -7  13   1   41.58    6.70
   7  13  -1   50.56    4.24
  -7  13   1   48.71    6.34
  -5 -13   1   75.05    7.03
   5 -13  -1   63.73    8.00
   5 -13  -1   75.40    7.41
  -5 -13   1   63.38    6.39
  -5  13   1   51.47    6.88
   5  13  -1   74.09    4.63
  -5  13   1   55.58    6.52
  -3 -13   1   -3.70    2.81
   3 -13  -1   -9.75    4.70
   3 -13  -1   -0.65    4.00
  -3 -13   1    0.74    3.31
  -3  13   1    2.30    3.95
   3  13  -1    0.84    2.00
  -3  13   1    1.61    3.06
  -1 -13   1    7.32    3.02
  -1 -13   1    3.82    6.80
   1 -13  -1   10.03    4.43
  -1  13   1    4.17    4.12
   1  13  -1    6.58    2.34
  -1  13   1    6.19    2.24
   1 -13   1   24.32    5.42
   1 -13   1   23.82    3.85
  -1 -13  -1   19.01    5.19
  -1  13  -1   21.14    3.99
  -1  13  -1   24.70    5.23
   1  13   1   28.61    5.16
   1  13   1   28.03    3.34
   3 -13   1   24.51    3.97
   3 -13   1   30.67    5.86
  -3 -13  -1   20.67    5.52
  -3 -13  -1   24.62    4.50
   3  13   1   28.78    3.28
   3  13   1   26.19    2.55
  -3  13  -1   26.27    4.34
  -3  13  -1   27.10    5.83
  -5 -13  -1    9.16    3.65
  -5 -13  -1    6.03    4.79
   5 -13   1   14.99    3.80
   5 -13   1    7.19    4.69
  -5 -13  -1   17.35    4.75
  -5  13  -1    5.62    4.85
  -5  13  -1   16.05    4.34
   5  13   1   11.83    3.10
   7 -13   1    2.33    4.72
  -7 -13  -1   -1.54    4.65
  -7 -13  -1    5.89    4.92
   7 -13   1    2.25    3.70
  -7 -13  -1   -0.89    3.96
  -7  13  -1    9.15    4.15
  -7  13  -1   -0.81    4.23
   7  13   1    1.02    3.09
  -6 -14   1   35.46    6.81
   6 -14  -1   40.52    7.30
   6 -14  -1   49.00    6.71
  -6  14   1   49.19    7.30
  -6  14   1   38.49    5.78
   6  14  -1   35.56    4.41
  -4 -14   1   22.02    5.72
   4 -14  -1   28.08    5.20
   4 -14  -1   23.82    6.20
  -4 -14   1   24.73    4.55
  -4  14   1   18.41    5.30
   4  14  -1   26.86    5.08
  -4  14   1   22.41    4.41
  -2 -14   1  172.42   11.82
   2 -14  -1  171.06   12.15
  -2 -14   1  174.36   10.05
   2 -14  -1  179.25   10.77
  -2  14   1  190.44   12.40
  -2  14   1  169.23    9.87
   2  14  -1  169.33    9.64
   0 -14  -1   40.31    6.84
   0 -14   1   45.61    5.05
   0 -14  -1   48.50    5.63
   0 -14   1   48.98    7.19
   0  14   1   36.94    6.19
   0  14  -1   50.12    5.64
   0  14   1   41.03    4.62
   0  14  -1   44.01    6.27
  -2 -14  -1    0.23    4.68
   2 -14   1    2.00    4.76
   2 -14   1    0.11    3.54
  -2 -14  -1    1.96    3.40
   2  14   1   -1.01    2.02
  -2  14  -1   -2.59    3.01
   2  14   1    6.70    4.37
  -2  14  -1    1.24    4.28
   4 -14   1    5.74    3.76
  -4 -14  -1    0.74    4.84
   4 -14   1    4.67    4.86
  -4 -14  -1    4.86    4.65
   4  14   1    3.57    1.78
  -4  14  -1    3.82    5.01
  -4  14  -1    2.98    3.52
 -16   0   2   43.57    5.94
 -16   0   2   45.61    6.03
 -16   0   2   47.26    5.33
  16   0  -2   51.84    7.26
 -16   0   2   43.43    5.51
 -14   0   2   24.27    3.15
 -14   0   2   26.96    4.13
 -14   0   2   26.24    4.23
 -14   0   2   21.03    3.45
  14   0  -2   24.43    4.97
 -12   0   2  398.63   18.06
  12   0  -2  399.15   18.49
 -12   0   2  389.93   18.03
 -12   0   2  417.21   17.02
 -12   0   2  374.89   17.57
 -10   0   2  102.20    5.67
  10   0  -2  111.77    6.86
 -10   0   2  119.55    6.61
 -10   0   2   97.73    6.29
 -10   0   2  109.84    6.06
  -8   0   2   18.00    2.56
  -8   0   2   17.14    2.18
   8   0  -2   14.29    2.30
  -8   0   2   18.92    2.14
  -8   0   2   23.77    2.74
   6   0  -2   22.13    2.43
  -6   0   2   23.69    2.35
  -6   0   2   25.71    2.40
  -6   0   2   23.84    2.06
  -6   0   2   24.61    1.99
  -4   0   2  460.73   18.68
  -4   0   2  449.57   18.80
   4   0  -2  477.68   18.41
  -4   0   2  460.83   18.84
  -4   0   2  472.83   18.55
   4   0  -2  464.51   18.97
   2   0  -2  484.74   19.45
   2   0  -2  499.96   19.19
  -2   0   2  497.62   19.20
  -2   0   2  467.35   19.36
  -2   0   2  477.57   19.35
   2   0  -2  488.61   19.09
  -2   0   2  483.43   19.08
   2   0  -2  501.83   19.51
   0   0  -2   38.45    1.74
   0   0  -2   36.88    1.89
   0   0  -2   35.58    2.03
   0   0   2   38.09    2.13
   0   0  -2   34.87    1.95
   0   0  -2   38.15    2.00
   0   0   2   36.81    1.97
   0   0   2   38.45    1.94
   0   0   2   37.80    1.96
   0   0  -2   37.38    1.94
   0   0   2   37.43    1.91
   2   0   2   58.73    3.00
   2   0   2   56.17    3.09
   2   0   2   60.55    3.08
   2   0   2   60.27    2.67
  -2   0  -2   60.58    3.00
  -2   0  -2   60.69    2.99
  -2   0  -2   61.95    2.63
  -2   0  -2   57.74    2.69
  -4   0  -2  231.69    9.06
  -4   0  -2  229.25    9.71
  -4   0  -2  235.60    9.37
  -4   0  -2  215.96    9.77
  -4   0  -2  223.41    9.88
   4   0   2  221.32    9.70
  -6   0  -2  600.35   23.74
  -6   0  -2  549.83   23.88
  -6   0  -2  556.07   23.34
   6   0   2  575.57   23.78
  -6   0  -2  621.20   22.79
  -8   0  -2   20.83    2.34
   8   0   2   24.98    2.68
  -8   0  -2   22.60    1.63
  -8   0  -2   21.30    2.72
  -8   0  -2   24.78    2.93
  10   0   2    8.40    2.49
 -10   0  -2    9.46    2.28
 -10   0  -2   11.25    2.14
 -10   0  -2    6.99    2.21
 -10   0  -2   11.41    1.37
 -12   0  -2  160.64    9.18
 -12   0  -2  166.66    6.91
 -12   0  -2  155.43    8.64
  12   0   2  159.97    9.51
 -12   0  -2  157.97    9.06
  14   0   2  189.26   12.01
 -14   0  -2  196.33   11.21
 -14   0  -2  199.23   10.44
 -14   0  -2  186.63   10.97
  16   0   2   -1.52    4.34
 -16   0  -2    1.46    4.12
 -16   0  -2   -0.81    4.30
 -16   0  -2   -0.85    3.57
 -17  -1   2    2.75    4.12
  17  -1  -2   14.91    5.07
 -17  -1   2   12.05    5.44
 -17  -1   2   20.62    5.21
  17  -1  -2    4.57    3.86
 -17  -1   2   11.07    3.28
  17   1  -2   12.48    5.42
 -17   1   2   14.92    4.72
 -17   1   2   10.73    3.75
 -17   1   2    3.45    4.34
 -17   1   2    6.49    4.95
 -15  -1   2  119.11    7.06
 -15  -1   2  123.10    9.56
 -15  -1   2  123.32    8.13
  15  -1  -2  106.00    9.43
 -15  -1   2  142.21    9.38
 -15   1   2  142.98    8.23
 -15   1   2  118.89    9.35
 -15   1   2  129.46    7.53
  15   1  -2  122.04    9.62
 -15   1   2  137.90    9.03
  13  -1  -2  177.42   10.25
 -13  -1   2  170.21    9.74
 -13  -1   2  177.67   11.16
 -13  -1   2  181.98    9.68
 -13  -1   2  183.56    8.71
 -13   1   2  190.41   10.19
 -13   1   2  168.00   10.02
  13   1  -2  181.65   10.45
 -13   1   2  174.88    8.92
 -13   1   2  175.56    9.41
 -11  -1   2   10.97    2.08
 -11  -1   2    8.99    2.24
  11  -1  -2    8.33    2.73
 -11  -1   2   10.59    2.51
 -11  -1   2   13.12    2.65
 -11   1   2    9.69    2.57
 -11   1   2    5.90    2.27
  11   1  -2    6.88    2.44
 -11   1   2    8.38    2.09
 -11   1   2    6.04    1.93
  -9  -1   2  184.51    9.10
  -9  -1   2  195.06    9.04
  -9  -1   2  191.62    9.10
   9  -1  -2  180.00    9.35
  -9  -1   2  178.34    8.42
  -9   1   2  174.61    9.12
  -9   1   2  181.55    8.68
  -9   1   2  177.96    9.22
  -9   1   2  193.03    8.68
   9   1  -2  193.58    9.56
   7  -1  -2  246.43   11.55
  -7  -1   2  265.41   11.37
  -7  -1   2  232.33   11.12
  -7  -1   2  255.31   10.94
  -7  -1   2  261.78   11.45
   7   1  -2  251.32   11.65
  -7   1   2  260.35   11.53
  -7   1   2  267.68   10.94
  -7   1   2  259.88   11.54
  -7   1   2  254.62   11.10
  -5  -1   2   76.90    3.96
   5  -1  -2   85.42    4.05
  -5  -1   2   78.87    4.24
   5  -1  -2   77.19    4.37
  -5  -1   2   84.45    4.15
  -5  -1   2   78.56    4.24
  -5   1   2   82.12    4.15
  -5   1   2   81.92    4.40
   5   1  -2   75.41    4.34
  -5   1   2   74.72    4.26
  -5   1   2   80.01    3.76
   3  -1  -2   64.34    3.45
   3  -1  -2   67.02    3.17
  -3  -1   2   60.73    3.24
  -3  -1   2   63.45    3.28
  -3  -1   2   63.00    3.23
   3  -1  -2   66.36    2.85
  -3   1   2   64.69    3.30
   3   1  -2   60.51    3.38
  -3   1   2   67.46    2.83
   3   1  -2   64.23    3.41
   3   1  -2   66.15    2.60
  -3   1   2   63.21    3.32
  -3   1   2   65.94    3.38
  -3   1   2   66.51    3.33
  -1  -1   2    3.52    0.67
  -1  -1   2    2.90    0.79
   1  -1  -2    1.68    0.67
   1  -1  -2    3.37    0.64
   1  -1  -2    2.54    0.59
   1  -1  -2    2.82    0.73
  -1  -1   2    2.57    0.62
   1  -1  -2    2.56    0.87
   1  -1  -2    2.96    0.80
  -1   1   2    2.33    0.57
  -1   1   2    3.00    0.71
  -1   1   2    3.33    0.77
  -1   1   2    2.90    0.53
   1   1  -2    2.26    0.62
   1   1  -2    2.91    0.81
   1   1  -2    1.26    0.84
   1   1  -2    2.77    0.79
  -1   1   2    3.07    0.84
  -1   1   2    4.11    0.92
  -1  -1  -2  323.43   12.82
   1  -1   2  333.23   12.98
  -1  -1  -2  300.86   13.06
  -1  -1  -2  313.66   12.83
  -1  -1  -2  333.60   12.89
  -1  -1  -2  337.12   13.03
  -1  -1  -2  317.75   13.14
   1  -1   2  328.81   12.78
   1  -1   2  316.12   13.07
   1   1   2  346.10   13.43
  -1   1  -2  309.41   13.08
  -1   1  -2  323.64   12.77
   1   1   2  321.65   12.86
   1   1   2  335.31   12.83
  -1   1  -2  301.72   12.94
   3  -1   2  638.03   26.74
  -3  -1  -2  703.91   26.50
  -3  -1  -2  697.48   26.15
  -3  -1  -2  734.50   26.91
  -3  -1  -2  651.92   26.80
  -3  -1  -2  690.07   26.04
  -3   1  -2  614.00   26.44
  -3   1  -2  670.01   26.40
   3   1   2  688.22   26.04
   3   1   2  656.02   26.51
   3   1   2  641.39   26.15
   3   1   2  669.95   26.53
  -5  -1  -2    0.70    1.03
   5  -1   2   -0.03    0.93
  -5  -1  -2    0.87    1.08
  -5  -1  -2    0.95    0.80
  -5  -1  -2   -0.14    0.84
  -5   1  -2    1.36    0.83
  -5   1  -2   -0.22    0.93
   5   1   2    0.60    0.88
  -5   1  -2    0.52    1.00
  -7  -1  -2  329.34   13.87
  -7  -1  -2  325.71   14.57
   7  -1   2  333.97   14.55
  -7   1  -2  348.92   14.57
   7   1   2  325.86   14.22
  -7   1  -2  325.52   14.09
  -7   1  -2  328.19   14.44
   9  -1   2  245.08   11.69
  -9  -1  -2  248.64   11.22
  -9  -1  -2  224.75   10.77
  -9  -1  -2  242.93   11.66
  -9   1  -2  238.26   11.44
  -9   1  -2  244.03   10.25
  -9   1  -2  241.11   11.12
   9   1   2  246.06   11.82
  -9   1  -2  245.81   11.47
 -11  -1  -2   54.57    4.37
 -11  -1  -2   50.09    4.63
 -11  -1  -2   60.82    5.03
  11  -1   2   54.03    5.04
 -11   1  -2   56.94    4.91
 -11   1  -2   50.95    4.49
  11   1   2   51.45    4.89
 -11   1  -2   53.45    3.44
 -11   1  -2   48.98    4.62
 -13  -1  -2    3.21    2.86
  13  -1   2    3.14    2.48
 -13  -1  -2    5.71    2.51
 -13  -1  -2    5.36    2.29
 -13   1  -2    8.76    2.88
  13   1   2    4.44    2.80
 -13   1  -2    6.66    1.95
 -13   1  -2    9.73    3.15
 -13   1  -2    6.82    2.54
 -15  -1  -2   28.57    4.08
 -15  -1  -2   35.21    5.34
 -15  -1  -2   29.59    5.29
  15  -1   2   35.83    6.11
 -15   1  -2   34.15    5.44
 -15   1  -2   31.64    4.42
  15   1   2   22.46    5.44
 -15   1  -2   34.51    5.50
 -17  -1  -2   73.08    7.80
 -17  -1  -2   71.43    7.52
  17  -1   2   63.13    8.09
 -17  -1  -2   59.50    7.88
 -17   1  -2   74.30    8.03
  17   1   2   67.75    8.76
 -17   1  -2   68.25    8.48
 -17   1  -2   71.04    8.32
 -16  -2   2   -5.08    3.72
 -16  -2   2   -1.64    4.36
  16  -2  -2   -2.55    3.23
  16  -2  -2   -3.76    3.89
 -16  -2   2    0.35    2.81
 -16  -2   2   -1.94    3.66
 -16   2   2    1.25    4.00
 -16   2   2    1.09    3.01
  16   2  -2   -4.67    3.63
 -16   2   2   -2.14    3.56
 -16   2   2   -4.70    2.60
  14  -2  -2   63.07    8.07
 -14  -2   2   70.13    6.00
 -14  -2   2   84.60    6.93
 -14  -2   2   70.61    6.28
 -14  -2   2   70.62    4.90
  14  -2  -2   71.91    6.05
 -14   2   2   74.50    7.16
 -14   2   2   72.22    6.92
 -14   2   2   70.87    6.62
 -14   2   2   76.01    5.77
  14   2  -2   71.82    7.84
 -12  -2   2   32.38    3.87
  12  -2  -2   29.93    4.19
 -12  -2   2   35.03    4.52
 -12  -2   2   32.77    3.81
  12  -2  -2   27.48    3.75
  12   2  -2   32.63    4.51
 -12   2   2   33.75    3.58
 -12   2   2   30.29    4.04
 -12   2   2   33.65    3.54
 -12   2   2   28.67    3.76
 -10  -2   2   83.00    5.15
 -10  -2   2   76.25    5.18
 -10  -2   2   76.00    5.07
  10  -2  -2   71.65    5.28
  10  -2  -2   71.00    4.97
 -10  -2   2   70.71    4.37
 -10   2   2   70.94    5.31
  10   2  -2   75.07    5.34
 -10   2   2   73.75    4.71
 -10   2   2   69.71    4.45
 -10   2   2   77.83    5.47
  -8  -2   2  166.18    7.86
  -8  -2   2  178.36    8.56
  -8  -2   2  170.77    8.29
   8  -2  -2  170.16    8.67
  -8  -2   2  174.36    8.49
   8  -2  -2  183.32    8.46
   8   2  -2  171.37    8.74
  -8   2   2  164.17    8.63
  -8   2   2  185.53    8.32
  -8   2   2  179.81    7.89
  -8   2   2  164.11    8.54
   6  -2  -2   62.25    3.92
   6  -2  -2   57.33    3.59
  -6  -2   2   59.93    3.37
  -6  -2   2   50.64    3.49
  -6  -2   2   63.07    3.73
  -6  -2   2   56.29    3.68
   6   2  -2   56.68    3.87
  -6   2   2   60.51    3.05
  -6   2   2   62.53    3.91
  -6   2   2   61.72    3.60
  -6   2   2   53.55    3.74
   6   2  -2   57.85    2.91
   4  -2  -2  381.46   15.63
  -4  -2   2  375.75   15.43
  -4  -2   2  375.17   15.69
  -4  -2   2  374.81   15.43
  -4  -2   2  384.32   15.70
  -4   2   2  369.97   15.69
  -4   2   2  382.23   15.75
  -4   2   2  371.84   15.63
  -4   2   2  386.86   14.92
   4   2  -2  360.32   15.54
   4   2  -2  388.75   15.71
   4   2  -2  396.77   14.77
  -2  -2   2  935.86   36.97
  -2  -2   2  973.45   36.56
  -2  -2   2  943.75   37.10
   2  -2  -2  945.60   37.26
   2  -2  -2  869.65   37.42
   2   2  -2 1000.00   37.06
  -2   2   2  976.14   37.10
   2   2  -2  908.08   36.98
   0  -2  -2   21.56    1.41
   0  -2   2   22.81    1.45
   0  -2   2   23.16    1.61
   0  -2  -2   24.88    1.39
   0  -2  -2   24.53    1.45
   0   2  -2   21.45    1.34
   0   2   2   22.79    1.61
   0   2   2   24.82    1.40
   0   2  -2   25.79    1.82
   0   2   2   23.34    1.34
   0   2   2   24.10    1.45
  -2  -2  -2  710.46   29.65
   2  -2   2  742.56   29.89
  -2  -2  -2  774.75   30.41
  -2  -2  -2  773.20   30.41
  -2  -2  -2  821.94   30.30
   2   2   2  772.15   29.82
  -2   2  -2  749.94   30.33
   2   2   2  763.12   29.84
   2   2   2  772.90   29.82
  -4  -2  -2  110.87    5.68
  -4  -2  -2  103.63    5.49
   4  -2   2  116.11    5.65
  -4  -2  -2  123.07    4.94
   4   2   2  114.39    4.51
  -4   2  -2  114.57    5.66
   4   2   2  111.45    5.10
  -4   2  -2  102.37    5.34
   4   2   2  114.06    4.92
   4   2   2  120.05    5.18
  -6  -2  -2  109.66    5.06
  -6  -2  -2  105.33    5.88
   6  -2   2  111.36    5.82
  -6  -2  -2  109.86    5.78
  -6  -2  -2  107.37    5.16
   6   2   2  105.23    5.28
  -6   2  -2  103.85    5.76
  -6   2  -2  106.23    5.50
  -6   2  -2   96.79    5.60
   6   2   2  105.88    5.39
   8  -2   2   40.63    3.63
  -8  -2  -2   31.82    3.33
  -8  -2  -2   35.61    3.01
   8  -2   2   39.95    3.39
  -8  -2  -2   38.70    2.93
  -8   2  -2   39.87    3.30
  -8   2  -2   35.57    3.57
  -8   2  -2   29.85    3.21
   8   2   2   35.72    3.02
 -10  -2  -2   -0.15    1.44
  10  -2   2    1.65    2.04
 -10  -2  -2    1.25    1.84
 -10   2  -2    2.40    1.46
 -10   2  -2    1.45    1.76
 -10   2  -2    1.03    1.60
 -10   2  -2    3.20    1.93
  10   2   2   -0.75    1.80
  12  -2   2  166.88    9.45
 -12  -2  -2  169.46    8.66
 -12  -2  -2  156.62    9.28
 -12  -2  -2  172.00    9.25
 -12   2  -2  166.32    7.82
  12   2   2  158.66    9.57
 -12   2  -2  161.24    9.44
 -12   2  -2  152.30    9.04
 -12   2  -2  172.72    9.13
 -14  -2  -2  134.58    9.90
 -14  -2  -2  145.74    8.49
  14  -2   2  123.80   10.89
 -14  -2  -2  154.61    9.19
 -14   2  -2  147.88    9.52
 -14   2  -2  141.07    7.35
 -14   2  -2  142.05    8.97
 -14   2  -2  150.76    8.78
  14   2   2  140.07   10.11
 -16  -2  -2   22.21    5.16
  16  -2   2   42.23    7.07
 -16  -2  -2   31.81    5.43
 -16  -2  -2   31.32    7.50
 -16   2  -2   30.69    5.28
 -16   2  -2   21.32    5.13
  16   2   2   33.69    6.12
 -16   2  -2   24.33    5.08
 -17  -3   2   15.21    5.12
 -17  -3   2   31.19    5.93
  17  -3  -2   13.44    5.86
  17  -3  -2   23.87    6.12
 -17   3   2   17.00    4.14
 -17   3   2   17.84    5.40
 -17   3   2   20.97    4.56
 -17   3   2   27.82    6.44
  17   3  -2   23.44    5.84
 -15  -3   2    6.08    2.62
 -15  -3   2   11.04    4.28
  15  -3  -2    7.98    4.37
 -15  -3   2    8.40    4.00
 -15  -3   2   11.20    4.39
  15  -3  -2   13.55    3.66
 -15   3   2   11.14    3.09
 -15   3   2   14.25    4.49
 -15   3   2    3.49    2.95
 -15   3   2    6.26    3.54
  15   3  -2    0.39    4.07
 -13  -3   2   40.91    3.78
  13  -3  -2   43.67    5.12
 -13  -3   2   43.75    4.86
 -13  -3   2   44.29    4.71
 -13  -3   2   38.67    4.41
  13  -3  -2   41.14    4.77
 -13   3   2   44.24    5.08
 -13   3   2   38.44    4.54
 -13   3   2   39.18    4.04
  13   3  -2   42.02    5.40
 -13   3   2   42.33    5.16
 -11  -3   2   39.57    4.01
 -11  -3   2   36.09    4.06
  11  -3  -2   32.18    4.13
 -11  -3   2   41.19    3.42
 -11  -3   2   46.05    4.42
  11  -3  -2   35.54    4.11
 -11   3   2   38.07    4.22
 -11   3   2   45.38    3.97
 -11   3   2   41.97    4.28
  11   3  -2   39.74    4.60
 -11   3   2   38.46    3.44
  -9  -3   2   45.78    3.78
  -9  -3   2   43.26    3.79
  -9  -3   2   45.36    3.91
   9  -3  -2   43.58    3.67
   9  -3  -2   41.01    3.92
  -9  -3   2   45.08    3.22
  -9   3   2   42.56    3.53
   9   3  -2   45.78    4.02
  -9   3   2   37.31    3.95
  -9   3   2   41.99    3.03
  -9   3   2   34.79    3.71
  -7  -3   2   86.43    5.21
  -7  -3   2   89.47    5.22
  -7  -3   2   91.33    4.84
   7  -3  -2   81.71    5.15
   7  -3  -2   89.18    5.18
  -7  -3   2   94.29    4.72
  -7   3   2   83.02    5.12
  -7   3   2   89.61    4.31
  -7   3   2   86.18    5.03
  -7   3   2   86.05    5.24
   7   3  -2   85.37    5.31
   7   3  -2  100.79    4.56
  -5  -3   2  132.86    6.28
  -5  -3   2  130.13    6.69
   5  -3  -2  146.66    6.73
  -5  -3   2  133.47    6.19
   5  -3  -2  139.13    6.73
   5   3  -2  128.30    5.66
   5   3  -2  142.52    6.70
  -5   3   2  133.01    6.66
  -5   3   2  132.69    6.73
   5   3  -2  139.93    6.78
  -5   3   2  143.30    5.73
  -5   3   2  136.68    6.64
  -3  -3   2  125.51    5.03
   3  -3  -2  115.02    5.59
  -3  -3   2  117.98    5.38
   3  -3  -2  123.08    5.88
  -3  -3   2  119.83    5.63
  -3  -3   2  121.43    5.80
   3   3  -2  123.87    5.51
   3   3  -2  130.52    5.07
  -3   3   2  116.32    5.72
  -3   3   2  111.74    5.62
   3   3  -2  123.79    5.55
  -3   3   2  112.60    5.73
   1  -3  -2  133.81    5.43
  -1  -3   2  122.11    5.90
   1  -3  -2  134.56    6.14
  -1  -3   2  130.15    5.66
  -1  -3   2  130.85    5.74
   1  -3  -2  121.08    5.99
  -1  -3   2  133.87    5.57
   1   3  -2  137.11    5.30
  -1   3   2  135.29    5.44
   1   3  -2  125.19    5.80
   1   3  -2  121.66    5.49
  -1   3   2  139.59    5.68
   1  -3   2  309.47   12.37
   1  -3   2  292.84   11.82
  -1  -3  -2  273.07   12.47
  -1  -3  -2  303.84   12.59
   1   3   2  301.58   11.78
  -1   3  -2  309.79   12.50
  -3  -3  -2   77.86    4.35
  -3  -3  -2   78.20    4.37
  -3  -3  -2   87.25    4.53
  -3   3  -2   83.52    4.50
   3   3   2   85.07    3.82
   3   3   2   83.65    3.66
   3   3   2   86.57    3.65
  -3   3  -2   83.28    4.37
   5  -3   2    1.35    1.24
  -5  -3  -2   -0.77    0.99
  -5  -3  -2    2.25    1.33
  -5  -3  -2   -0.53    0.70
  -5   3  -2    0.85    1.06
  -5   3  -2    0.01    1.07
   5   3   2    0.50    0.49
   5   3   2    0.98    0.41
   5   3   2    1.40    0.83
   5   3   2    0.64    0.77
   7  -3   2   20.81    2.59
  -7  -3  -2   22.18    2.80
   7  -3   2   18.69    2.65
  -7  -3  -2   20.65    2.71
  -7  -3  -2   19.22    2.20
   7   3   2   16.55    2.08
   7   3   2   19.99    2.10
  -7   3  -2   23.77    2.80
  -7   3  -2   14.36    2.32
  -9  -3  -2  170.69    8.98
   9  -3   2  169.70    8.66
  -9  -3  -2  167.62    7.93
  -9  -3  -2  174.90    7.99
  -9   3  -2  171.01    8.92
  -9   3  -2  162.07    8.50
  -9   3  -2  145.68    8.38
  11  -3   2   -3.25    1.86
 -11  -3  -2    1.19    1.71
 -11  -3  -2    3.51    1.99
 -11  -3  -2    4.63    2.37
 -11   3  -2    4.48    2.38
  11   3   2    4.84    2.52
 -11   3  -2    3.14    1.86
 -11   3  -2    1.87    1.90
 -11   3  -2   -1.54    1.89
  13  -3   2    3.64    2.84
 -13  -3  -2    5.46    2.34
 -13  -3  -2    7.18    3.05
 -13   3  -2    5.25    2.29
 -13   3  -2    2.61    2.46
 -13   3  -2    6.36    2.46
 -13   3  -2    9.25    3.26
 -15  -3  -2    0.54    3.91
  15  -3   2    6.45    4.47
 -15   3  -2    5.32    4.29
 -15   3  -2   -0.30    3.68
 -15   3  -2    6.97    2.87
  15   3   2    5.46    4.79
  17  -3   2   56.14    7.90
 -17  -3  -2   63.34    8.03
 -17  -3  -2   58.19    7.16
  17   3   2   57.80    8.60
 -17   3  -2   57.47    7.00
 -17   3  -2   45.59    8.48
 -17   3  -2   61.86    7.62
  16  -4  -2   -0.92    4.16
 -16  -4   2   -1.32    3.96
  16  -4  -2   -6.15    4.60
 -16   4   2    4.29    3.01
 -16   4   2   -2.29    4.72
 -16   4   2   -2.71    3.25
 -16   4   2   -4.25    3.80
  16   4  -2    0.20    4.20
  14  -4  -2    9.02    5.17
 -14  -4   2   11.87    4.24
 -14  -4   2   24.00    3.14
  14  -4  -2   12.54    3.60
 -14  -4   2   22.49    4.38
 -14   4   2   17.06    3.36
 -14   4   2   18.23    3.18
  14   4  -2   17.77    4.65
 -14   4   2   20.18    3.96
 -14   4   2   16.83    4.36
 -12  -4   2   -0.57    2.03
 -12  -4   2    1.58    1.76
  12  -4  -2    2.61    2.45
 -12  -4   2    1.94    2.81
 -12  -4   2   -4.11    2.09
  12  -4  -2   -5.97    2.10
 -12   4   2   -1.34    2.17
 -12   4   2   -1.58    1.72
 -12   4   2   -0.57    2.34
  12   4  -2   -1.26    2.15
 -12   4   2    2.01    2.55
 -10  -4   2   66.02    5.15
 -10  -4   2   73.36    5.02
  10  -4  -2   68.40    5.23
 -10  -4   2   68.69    4.38
  10  -4  -2   65.12    5.18
 -10   4   2   64.76    5.13
  10   4  -2   67.30    5.27
 -10   4   2   70.32    4.32
 -10   4   2   69.87    5.48
 -10   4   2   69.11    4.98
  -8  -4   2   13.28    2.31
   8  -4  -2    8.83    2.10
   8  -4  -2   14.20    2.42
  -8  -4   2   12.37    1.82
  -8  -4   2   13.62    2.13
  -8   4   2   14.03    2.41
  -8   4   2   15.03    1.83
  -8   4   2   13.03    2.41
  -8   4   2   11.66    2.51
   8   4  -2    9.78    2.27
   6  -4  -2    3.11    1.48
  -6  -4   2    3.86    1.59
  -6  -4   2    5.40    1.35
   6  -4  -2    5.74    1.73
  -6  -4   2    3.62    1.34
  -6   4   2    5.52    1.58
  -6   4   2    4.37    1.45
  -6   4   2    3.24    1.39
  -6   4   2    3.47    0.77
   6   4  -2    3.48    1.53
   6   4  -2    2.85    0.97
  -4  -4   2  149.03    8.12
  -4  -4   2  188.29    7.41
   4  -4  -2  178.19    7.94
  -4  -4   2  180.80    7.96
  -4  -4   2  183.47    7.56
   4  -4  -2  181.52    8.40
   4   4  -2  155.10    7.80
   4   4  -2  168.75    7.35
  -4   4   2  181.61    8.28
  -4   4   2  180.87    7.11
  -4   4   2  176.52    8.13
   4   4  -2  181.55    7.77
   2  -4  -2   88.83    4.86
   2  -4  -2   88.71    4.40
  -2  -4   2   93.19    4.24
   2  -4  -2   85.85    4.68
  -2  -4   2  100.48    4.63
  -2  -4   2   96.89    4.86
  -2  -4   2   87.20    4.22
   2   4  -2   89.95    4.16
   2   4  -2   87.79    4.34
  -2   4   2   84.01    3.88
  -2   4   2   87.75    4.52
  -2   4   2   87.26    4.36
   2   4  -2   89.75    4.10
   0  -4  -2    6.66    1.32
   0  -4   2    7.49    1.30
   0  -4   2   10.30    0.84
   0  -4  -2    7.69    1.45
   0  -4   2    8.99    1.28
   0  -4  -2    8.21    1.13
   0  -4   2    8.83    0.89
   0   4  -2    9.02    1.40
   0   4  -2    8.36    0.74
   0   4   2    9.28    0.97
   0   4   2    9.67    1.23
  -2  -4  -2   44.50    3.05
  -2  -4  -2   41.87    3.02
  -2  -4  -2   41.16    2.73
   2   4   2   42.38    1.83
  -2   4  -2   36.87    2.77
   2   4   2   43.43    1.86
   4  -4   2   40.16    3.15
  -4  -4  -2   38.32    3.16
  -4  -4  -2   42.63    3.10
  -4  -4  -2   41.07    3.11
  -4   4  -2   43.47    3.19
  -4   4  -2   41.44    3.15
   4   4   2   41.78    2.13
   4   4   2   39.15    2.11
  -6  -4  -2   -0.77    1.27
  -6  -4  -2    0.81    1.24
   6  -4   2    1.36    1.33
  -6  -4  -2    1.76    1.65
   6  -4   2    0.29    1.15
   6   4   2    0.41    0.85
  -6   4  -2   -1.58    1.27
   6   4   2    1.76    0.96
   6   4   2    0.97    0.76
  -6   4  -2    1.21    1.31
  -8  -4  -2   95.43    4.61
  -8  -4  -2   87.74    5.89
   8  -4   2   91.69    5.50
  -8  -4  -2  102.42    6.30
  -8   4  -2   85.74    5.66
  -8   4  -2   94.50    5.96
   8   4   2   96.26    5.31
  10  -4   2    3.68    1.92
 -10  -4  -2    0.50    1.87
 -10   4  -2    1.36    1.80
 -10   4  -2   -2.46    1.97
  10   4   2    1.50    2.15
 -10   4  -2    0.10    1.79
 -12  -4  -2   33.47    4.62
 -12  -4  -2   25.63    3.66
  12  -4   2   33.97    4.25
 -12   4  -2   37.68    3.84
  12   4   2   37.01    4.79
 -12   4  -2   38.79    4.33
 -12   4  -2   33.48    4.38
 -12   4  -2   38.80    4.95
 -14  -4  -2   26.45    5.01
  14  -4   2   17.71    5.36
 -14   4  -2   23.07    3.92
 -14   4  -2   28.91    4.98
 -14   4  -2   22.72    4.69
 -14   4  -2   28.79    3.65
  14   4   2   13.06    4.17
  16  -4   2    8.31    5.41
 -16  -4  -2   -2.48    3.95
 -16   4  -2    0.25    3.32
 -16   4  -2   -1.47    4.21
  16   4   2   -3.02    4.55
 -16   4  -2    2.93    5.59
 -16   4  -2   -3.68    4.33
  15  -5  -2   11.20    4.85
 -15  -5   2    8.12    4.37
  15  -5  -2   12.16    4.55
 -15   5   2    6.37    2.89
 -15   5   2    8.21    4.37
  15   5  -2    5.72    4.67
 -15   5   2    1.41    4.19
 -15   5   2    1.82    3.16
  13  -5  -2    5.89    2.94
 -13  -5   2   17.18    3.88
  13  -5  -2   13.30    3.44
 -13   5   2   14.89    3.26
 -13   5   2    7.89    3.68
  13   5  -2    7.17    4.82
 -13   5   2   11.23    3.68
 -13   5   2   12.88    2.61
  11  -5  -2    2.74    2.16
 -11  -5   2    1.49    1.93
  11  -5  -2    0.82    2.32
 -11  -5   2    1.51    1.90
 -11  -5   2   -1.26    2.34
  11   5  -2   -0.26    2.27
 -11   5   2   -1.72    2.02
 -11   5   2    2.71    2.17
 -11   5   2    0.26    1.68
 -11   5   2   -0.15    2.09
  -9  -5   2   80.56    4.88
  -9  -5   2   74.69    4.59
   9  -5  -2   75.87    5.47
   9  -5  -2   70.86    5.33
  -9  -5   2   74.66    5.46
  -9   5   2   71.23    5.36
  -9   5   2   69.54    5.46
  -9   5   2   80.79    4.22
   9   5  -2   75.51    5.44
  -9   5   2   79.32    5.41
   7  -5  -2    3.56    1.83
  -7  -5   2   -0.96    1.67
  -7  -5   2    2.11    1.29
  -7  -5   2    2.08    1.52
   7  -5  -2    2.45    1.50
  -7   5   2    0.95    1.56
   7   5  -2    0.99    1.63
  -7   5   2    5.08    1.83
  -7   5   2    3.12    1.68
  -7   5   2    1.07    1.56
   5  -5  -2   82.48    4.57
  -5  -5   2   87.75    5.15
   5  -5  -2   81.78    5.13
   5   5  -2   80.85    4.39
  -5   5   2   82.44    4.95
  -5   5   2   76.37    4.79
   5   5  -2   77.42    4.58
   3  -5  -2    8.66    1.81
  -3  -5   2   10.06    1.40
  -3  -5   2    7.22    1.64
   3  -5  -2    7.79    1.44
   3  -5  -2    8.07    1.72
   3   5  -2    7.90    1.30
  -3   5   2    8.85    1.52
  -3   5   2    9.71    1.13
   3   5  -2   10.39    1.42
  -3   5   2    9.57    1.82
  -1  -5   2   37.97    2.06
  -1  -5   2   37.18    2.61
   1  -5  -2   31.23    2.69
   1  -5  -2   31.07    2.78
  -1  -5   2   36.46    2.35
   1   5  -2   32.03    2.58
  -1   5   2   37.47    2.25
   1   5  -2   33.16    2.05
  -1   5   2   35.67    2.67
   1   5  -2   37.22    1.90
   1  -5   2   -0.33    1.05
   1  -5   2    0.72    1.03
  -1  -5  -2   -0.94    0.94
   1  -5   2    1.31    0.69
  -1  -5  -2    0.22    1.19
  -1  -5  -2    0.76    1.06
   1   5   2    0.29    0.41
  -1   5  -2    0.35    0.95
  -3  -5  -2   26.57    2.58
   3  -5   2   29.10    2.56
  -3  -5  -2   21.90    2.65
  -3  -5  -2   20.02    2.43
   3  -5   2   27.35    1.67
  -3   5  -2   28.37    2.70
  -3   5  -2   20.25    2.30
  -5  -5  -2   15.05    2.44
  -5  -5  -2   19.11    2.50
   5  -5   2   18.49    1.99
  -5  -5  -2   19.88    2.53
   5  -5   2   21.06    2.69
  -5   5  -2   11.03    2.25
   5   5   2   16.89    1.36
   5   5   2   12.98    1.35
  -5   5  -2   11.56    2.04
  -7  -5  -2   54.57    4.56
  -7  -5  -2   49.12    4.14
   7  -5   2   50.71    3.69
   7   5   2   55.01    3.17
  -7   5  -2   46.92    4.18
  -7   5  -2   53.00    4.42
   7   5   2   54.38    2.94
  -9  -5  -2   28.86    3.76
   9  -5   2   30.84    3.46
   9   5   2   40.03    3.70
  -9   5  -2   39.99    4.01
  -9   5  -2   38.10    3.94
  -9   5  -2   32.61    3.72
  11  -5   2    4.32    2.52
 -11  -5  -2   14.87    3.07
  11   5   2   12.99    2.99
 -11   5  -2   12.58    2.63
 -11   5  -2   11.72    2.74
 -11   5  -2   10.68    3.18
 -13  -5  -2   14.29    4.29
  13  -5   2   17.17    3.61
 -13   5  -2   23.20    4.18
 -13   5  -2   14.45    2.97
  13   5   2   14.04    4.41
  15  -5   2   -2.96    4.18
 -15  -5  -2    0.12    4.25
  15   5   2   -5.59    4.45
 -15   5  -2   -3.01    3.01
 -15   5  -2   -2.66    4.63
 -15   5  -2    2.86    3.98
  16  -6  -2    2.38    5.34
 -16  -6   2   -1.84    4.30
  16  -6  -2    4.07    5.06
  16   6  -2    1.97    4.65
 -16   6   2    6.18    4.77
 -16   6   2   -0.64    3.26
 -16   6   2    4.05    5.32
 -16   6   2    2.26    4.76
  14  -6  -2    1.76    4.46
 -14  -6   2    7.02    4.21
  14  -6  -2   -2.48    4.22
 -14   6   2   -4.20    2.36
 -14   6   2   -3.12    3.87
 -14   6   2   -4.59    3.00
  14   6  -2   -0.10    3.72
 -14   6   2    3.35    4.04
  12  -6  -2    4.64    2.77
  12  -6  -2    1.83    2.74
  12   6  -2    1.30    2.33
 -12   6   2    2.16    2.02
 -12   6   2    7.73    3.19
 -12   6   2    0.63    2.98
 -12   6   2   -1.02    2.40
  10  -6  -2   66.92    5.37
 -10  -6   2   69.59    4.73
  10  -6  -2   62.55    5.59
 -10  -6   2   73.37    5.52
  10   6  -2   69.74    5.54
 -10   6   2   65.61    5.38
 -10   6   2   66.12    5.52
 -10   6   2   64.63    5.53
 -10   6   2   68.89    4.12
   8  -6  -2    1.28    1.89
  -8  -6   2    2.56    1.84
  -8  -6   2   -0.16    1.64
   8  -6  -2   -0.62    1.65
   8   6  -2    0.10    1.83
  -8   6   2    1.56    1.67
  -8   6   2    2.06    1.96
  -8   6   2   -0.30    1.06
  -8   6   2    0.33    1.62
   6  -6  -2    3.25    1.91
  -6  -6   2    2.88    1.34
  -6  -6   2    2.04    1.26
  -6  -6   2    5.18    1.93
   6  -6  -2    2.09    1.52
   6   6  -2    1.08    1.48
  -6   6   2    2.45    1.60
   6   6  -2    2.03    1.42
  -6   6   2    3.99    1.81
   4  -6  -2    0.89    1.18
   4  -6  -2    0.99    1.42
  -4  -6   2    3.18    1.54
   4  -6  -2    2.28    1.53
  -4  -6   2    1.92    1.48
  -4  -6   2    0.77    1.09
  -4   6   2    1.16    1.17
   4   6  -2    2.27    1.24
  -4   6   2    1.86    1.34
   4   6  -2    2.08    1.14
  -2  -6   2   33.12    2.66
   2  -6  -2   35.09    2.56
  -2  -6   2   33.02    2.81
  -2  -6   2   32.63    3.13
   2  -6  -2   38.49    3.17
   2  -6  -2   37.96    3.21
  -2   6   2   34.44    2.49
  -2   6   2   34.67    3.00
   2   6  -2   35.31    2.63
   2   6  -2   31.06    2.08
   0  -6  -2   34.14    3.09
   0  -6   2   34.04    2.86
   0  -6   2   29.05    2.50
   0  -6  -2   30.94    2.91
   0  -6   2   28.64    2.10
   0  -6  -2   27.16    2.53
   0   6  -2   29.16    2.54
   0   6   2   30.62    1.96
   0   6   2   35.50    2.70
   0   6  -2   32.62    2.88
   2  -6   2    9.75    1.89
  -2  -6  -2    9.59    1.96
   2  -6   2   11.91    1.86
  -2  -6  -2    8.91    1.85
  -2  -6  -2   11.08    1.83
   2   6   2    9.80    0.78
  -2   6  -2    8.22    1.66
   4  -6   2   15.38    2.26
   4  -6   2   20.67    2.90
  -4  -6  -2   13.82    2.33
  -4  -6  -2   17.17    2.51
  -4  -6  -2   14.48    2.24
   4  -6   2   16.79    1.66
  -4   6  -2   16.31    2.41
  -4   6  -2   13.39    2.46
  -6  -6  -2   32.79    3.59
  -6  -6  -2   27.89    3.43
  -6  -6  -2   35.18    3.35
   6  -6   2   31.48    2.75
  -6   6  -2   31.20    3.53
  -6   6  -2   26.57    3.35
   6   6   2   28.33    2.01
  -8  -6  -2    5.18    2.32
   8  -6   2    4.18    1.75
  -8  -6  -2    2.58    2.35
  -8   6  -2    4.27    2.17
  -8   6  -2    2.15    1.82
   8   6   2    2.12    1.46
 -10  -6  -2   18.56    3.48
  10  -6   2   15.61    2.80
 -10   6  -2   15.26    2.88
 -10   6  -2   15.20    3.06
  10   6   2   18.99    3.06
  10   6   2   20.51    3.79
 -10   6  -2   15.76    3.08
 -12  -6  -2    7.16    3.78
  12  -6   2    3.62    2.54
 -12   6  -2    6.15    3.04
 -12   6  -2    6.02    3.43
 -12   6  -2    4.84    2.48
 -14  -6  -2   -4.63    3.82
  14  -6   2    3.53    3.37
 -14   6  -2    2.30    2.89
  14   6   2   -1.27    4.00
 -14   6  -2    0.54    4.34
 -14   6  -2    6.01    4.22
 -14   6  -2    1.64    2.88
  15  -7  -2   19.15    5.76
 -15  -7   2   12.65    5.00
  15  -7  -2   13.38    5.19
 -15   7   2   15.11    3.30
 -15   7   2   10.70    4.87
  15   7  -2   16.43    5.46
 -15   7   2   12.04    4.88
 -15   7   2   20.08    5.47
 -13  -7   2    7.96    3.92
  13  -7  -2   15.07    4.62
  13  -7  -2   10.70    3.58
  13   7  -2    6.11    4.26
 -13   7   2   12.83    5.12
 -13   7   2    8.04    3.85
 -13   7   2    9.41    4.10
 -13   7   2   11.28    2.78
  11  -7  -2   14.21    3.09
  11  -7  -2   13.34    3.31
 -11   7   2   10.25    5.20
 -11   7   2    7.43    2.58
 -11   7   2   15.12    2.31
  11   7  -2   10.13    3.10
 -11   7   2   15.57    4.47
  -9  -7   2   54.31    4.96
   9  -7  -2   61.92    4.88
   9  -7  -2   57.11    5.24
  -9   7   2   58.11    4.96
   9   7  -2   58.82    5.00
  -9   7   2   63.94    5.39
  -9   7   2   54.37    5.07
  -9   7   2   62.31    3.63
  -7  -7   2   84.56    6.13
  -7  -7   2   92.12    5.10
   7  -7  -2   93.26    6.41
   7  -7  -2   87.99    5.60
  -7   7   2   87.53    6.16
   7   7  -2   95.83    5.65
   7   7  -2   92.71    5.32
  -7   7   2   85.04    5.79
   5  -7  -2   34.38    3.08
  -5  -7   2   32.28    3.61
  -5  -7   2   35.24    2.97
   5  -7  -2   34.95    3.58
   5  -7  -2   36.82    3.73
  -5   7   2   32.55    3.46
   5   7  -2   31.54    2.93
  -5   7   2   35.21    3.42
   5   7  -2   31.86    2.93
   3  -7  -2   -0.28    1.39
  -3  -7   2    1.87    1.56
  -3  -7   2    0.39    1.01
  -3  -7   2    1.31    1.46
   3  -7  -2    2.48    1.46
   3  -7  -2    1.69    1.33
  -3  -7   2   -0.30    1.27
  -3   7   2    2.66    1.45
  -3   7   2    0.61    1.20
   3   7  -2   -1.27    1.29
   3   7  -2   -1.49    0.94
  -1  -7   2  119.46    6.17
   1  -7  -2  114.80    6.26
   1  -7  -2  110.94    5.72
  -1  -7   2  115.70    5.43
   1  -7  -2  124.30    6.67
   1   7  -2  117.20    5.84
   1   7  -2  108.95    5.73
  -1   7   2  111.89    6.14
  -1   7   2  105.68    5.43
  -1  -7  -2  144.79    7.75
  -1  -7  -2  147.34    7.99
  -1  -7  -2  173.92    7.64
   1  -7   2  163.84    7.24
   1  -7   2  153.35    7.84
   1  -7   2  147.27    6.90
  -1   7  -2  156.86    7.52
   1   7   2  149.03    6.56
  -3  -7  -2    0.12    1.42
  -3  -7  -2   -1.32    1.37
  -3  -7  -2    0.19    1.50
   3  -7   2   -2.37    1.43
   3  -7   2    0.69    1.27
  -3   7  -2    1.22    1.39
  -3   7  -2   -1.60    1.58
  -5  -7  -2    0.60    1.66
   5  -7   2   -0.78    1.91
   5  -7   2    0.80    1.12
  -5  -7  -2    1.56    1.85
  -5  -7  -2   -0.08    1.76
  -5   7  -2    1.24    1.64
  -5   7  -2    0.49    1.84
  -7  -7  -2   -0.17    1.85
  -7  -7  -2    1.09    2.11
   7  -7   2    3.34    1.66
   7  -7   2    2.71    2.09
  -7  -7  -2    4.17    2.17
  -7   7  -2    2.22    2.08
   7   7   2    0.67    1.09
  -7   7  -2   -0.08    1.81
   9  -7   2  252.18   10.99
  -9  -7  -2  212.95   11.80
  -9  -7  -2  228.02   12.19
  -9   7  -2  227.55   12.11
  -9   7  -2  224.17   11.85
   9   7   2  234.96   10.39
  11  -7   2   19.87    3.34
 -11  -7  -2   21.94    4.30
 -11   7  -2   14.42    5.50
 -11   7  -2   12.87    4.59
 -11   7  -2   13.03    2.98
  11   7   2   14.39    3.43
  13  -7   2    5.37    3.34
  13  -7   2    3.37    4.03
 -13  -7  -2    7.03    4.05
 -13   7  -2    7.15    4.71
 -13   7  -2   13.53    3.23
 -13   7  -2    4.47    4.18
  13   7   2    6.42    4.08
 -15  -7  -2   17.36    5.37
  15  -7   2    8.75    5.24
  15  -7   2   12.12    5.63
  15   7   2   10.61    5.37
 -15   7  -2   10.25    5.16
 -15   7  -2   16.97    5.32
 -15   7  -2    8.28    4.92
 -15   7  -2   10.25    5.24
  14  -8  -2    5.38    4.76
 -14  -8   2    5.66    4.30
  14  -8  -2    5.83    4.56
 -14   8   2    3.82    4.51
 -14   8   2    8.06    2.61
 -14   8   2   -7.32    3.63
  14   8  -2    2.76    4.34
 -14   8   2    6.14    4.59
  12  -8  -2   65.09    6.12
 -12  -8   2   67.31    7.16
  12  -8  -2   69.22    7.82
 -12   8   2   69.79    7.43
 -12   8   2   67.85    7.77
 -12   8   2   74.14    4.97
 -12   8   2   73.46    7.43
  10  -8  -2   95.58    7.32
  10  -8  -2   96.91    6.70
 -10  -8   2   74.08    8.52
 -10   8   2   84.28    8.36
  10   8  -2  109.09    7.04
 -10   8   2   99.75    8.90
 -10   8   2  114.42    5.50
 -10   8   2  110.70    7.32
   8  -8  -2   18.44    3.95
  -8  -8   2   25.25    2.95
  -8  -8   2   19.05    3.38
   8  -8  -2   24.28    3.58
   8  -8  -2   17.18    2.95
  -8   8   2   21.25    2.42
   8   8  -2   26.63    3.15
   8   8  -2   20.60    3.23
  -8   8   2   18.17    3.46
  -8   8   2   13.72    2.82
  -6  -8   2   81.02    5.83
  -6  -8   2   80.89    4.99
   6  -8  -2   82.90    5.09
   6  -8  -2   83.26    6.05
   6  -8  -2   82.85    5.78
  -6   8   2   87.28    5.96
  -6   8   2   78.69    5.55
   6   8  -2   83.74    4.86
   6   8  -2   82.93    5.14
   4  -8  -2   29.65    3.74
  -4  -8   2   28.23    3.10
   4  -8  -2   34.64    3.62
  -4  -8   2   27.50    3.05
   4  -8  -2   32.39    2.96
  -4  -8   2   30.11    3.69
   4   8  -2   33.68    2.71
  -4   8   2   29.52    3.66
   4   8  -2   25.41    2.83
  -4   8   2   29.13    3.15
  -2  -8   2   47.13    3.34
   2  -8  -2   53.50    4.56
   2  -8  -2   42.88    3.98
  -2  -8   2   50.00    3.87
  -2   8   2   49.02    3.39
  -2   8   2   47.05    4.04
   2   8  -2   45.56    2.60
   2   8  -2   54.59    3.64
   0  -8   2   43.60    3.08
   0  -8  -2   48.16    3.68
   0  -8  -2   54.33    4.34
   0  -8  -2   45.50    3.88
   0  -8   2   40.26    3.82
   0   8   2   45.75    2.84
   0   8   2   44.52    3.72
   0   8  -2   42.31    3.40
  -2  -8  -2    1.40    1.78
  -2  -8  -2    1.16    1.60
   2  -8   2    1.43    1.33
   2  -8   2    2.15    1.83
  -2  -8  -2    0.07    1.48
  -2   8  -2    0.53    1.24
   2   8   2    1.23    0.71
   4  -8   2   86.75    6.09
  -4  -8  -2   81.68    5.65
  -4  -8  -2   96.95    5.93
   4  -8   2   90.03    5.03
  -4  -8  -2   85.79    5.62
  -4   8  -2   78.50    5.54
  -4   8  -2   87.03    5.98
   6  -8   2  180.75    9.00
  -6  -8  -2  200.59   10.20
   6  -8   2  198.72   10.69
  -6  -8  -2  196.86   10.25
  -6  -8  -2  208.48   10.49
  -6   8  -2  192.99   10.27
  -6   8  -2  194.55   10.39
   6   8   2  199.53    8.04
   8  -8   2   21.24    3.73
  -8  -8  -2   16.68    3.39
  -8  -8  -2   13.59    3.06
  -8  -8  -2   15.75    3.01
   8  -8   2   19.19    2.46
  -8   8  -2   19.00    3.73
   8   8   2   16.09    1.95
  -8   8  -2   12.14    2.89
 -10  -8  -2   35.87    5.13
  10  -8   2   43.81    6.21
  10  -8   2   46.05    4.43
 -10   8  -2   33.97    6.06
  10   8   2   43.48    5.08
 -10   8  -2   37.03    5.37
  12  -8   2   57.82    7.56
 -12  -8  -2   73.95    7.76
  12  -8   2   66.21    5.95
 -12   8  -2   62.26    5.97
  12   8   2   56.20    6.94
 -12   8  -2   48.81    6.53
 -12   8  -2   69.27    7.61
  14  -8   2    6.91    4.59
  14  -8   2   16.14    4.33
 -14  -8  -2   14.26    4.98
 -14   8  -2   17.24    4.25
 -14   8  -2   13.70    5.13
 -14   8  -2   16.50    5.33
  14   8   2   19.35    5.42
 -14   8  -2    8.73    4.68
  13  -9  -2   26.74    4.48
 -13  -9   2   12.57    5.27
  13  -9  -2   21.03    5.69
 -13   9   2   20.46    5.31
  13   9  -2   14.83    4.80
 -13   9   2    8.70    4.70
 -13   9   2   22.46    5.75
  11  -9  -2    6.39    3.24
 -11  -9   2    3.39    3.79
  11  -9  -2    4.83    3.97
  11  -9  -2    5.15    3.95
 -11   9   2    1.18    3.60
 -11   9   2    4.86    3.97
 -11   9   2    7.91    2.28
  11   9  -2    9.36    3.01
 -11   9   2    8.39    3.56
   9  -9  -2   22.82    5.66
   9  -9  -2   20.67    3.45
   9  -9  -2   21.06    3.85
  -9  -9   2   23.10    4.76
   9   9  -2   20.97    3.43
  -9   9   2   17.02    4.31
  -9   9   2   22.96    4.11
  -9   9   2   26.75    2.99
  -7  -9   2   55.64    5.26
   7  -9  -2   43.31    4.97
   7  -9  -2   56.62    5.23
  -7  -9   2   58.76    4.70
   7  -9  -2   53.51    4.43
   7   9  -2   58.22    4.52
  -7   9   2   60.84    5.33
  -7   9   2   49.26    4.72
   7   9  -2   59.90    4.61
   5  -9  -2  319.29   15.37
   5  -9  -2  314.95   14.82
  -5  -9   2  300.27   15.02
   5  -9  -2  314.47   13.61
  -5  -9   2  347.36   14.23
   5   9  -2  301.17   13.54
  -5   9   2  314.59   14.49
   5   9  -2  313.68   13.61
  -5   9   2  308.61   14.97
   3  -9  -2   17.40    2.82
   3  -9  -2    7.54    2.41
  -3  -9   2   13.94    2.53
  -3  -9   2   18.92    2.52
  -3   9   2   12.01    2.71
   3   9  -2   14.62    1.63
   3   9  -2   15.73    2.25
  -3   9   2   11.10    2.11
  -1  -9   2  173.24    7.98
   1  -9  -2  171.49    9.00
  -1  -9   2  164.74    8.93
   1  -9  -2  163.64    9.49
  -1   9   2  168.88    7.95
  -1   9   2  171.90    7.96
   1   9  -2  171.93    8.30
   1   9  -2  175.61    8.41
  -1   9   2  174.12    9.01
  -1  -9  -2  118.56    6.95
  -1  -9  -2  110.92    6.39
   1  -9   2  116.74    6.95
   1  -9   2  116.26    5.73
  -1  -9  -2  105.01    6.59
  -1   9  -2  107.28    6.22
   1   9   2   97.92    5.11
   1   9   2  108.91    5.09
  -3  -9  -2   51.27    4.52
   3  -9   2   58.19    4.89
  -3  -9  -2   47.26    4.41
  -3  -9  -2   53.69    4.60
   3  -9   2   57.04    3.95
   3   9   2   52.78    2.55
  -3   9  -2   48.89    4.91
  -3   9  -2   45.06    4.17
   5  -9   2    4.04    1.92
  -5  -9  -2    0.07    2.06
   5  -9   2    1.39    2.42
  -5  -9  -2   -1.62    1.87
  -5  -9  -2    3.03    1.98
  -5   9  -2    0.39    2.05
  -5   9  -2    2.79    2.26
  -7  -9  -2   35.77    4.46
   7  -9   2   50.89    4.39
   7  -9   2   40.52    5.02
   7  -9   2   45.86    3.29
  -7  -9  -2   37.50    4.63
  -7  -9  -2   45.39    5.26
   7   9   2   39.92    2.54
  -7   9  -2   44.60    5.21
  -7   9  -2   41.36    4.61
  -9  -9  -2   56.54    6.34
   9  -9   2   44.74    6.23
  -9  -9  -2   60.58    5.86
   9  -9   2   61.03    4.58
  -9  -9  -2   62.83    5.85
  -9   9  -2   49.66    6.35
  -9   9  -2   61.46    6.78
   9   9   2   64.76    5.56
   9   9   2   47.04    3.80
  11  -9   2   64.55    5.87
  11  -9   2   71.36    8.12
 -11  -9  -2   60.75    7.52
 -11   9  -2   68.94    8.01
 -11   9  -2   79.12    8.01
  11   9   2   80.59    7.82
  13  -9   2    7.89    4.74
  13  -9   2   10.93    3.81
 -13  -9  -2    4.22    4.58
  13   9   2    8.46    4.66
 -13   9  -2    4.41    5.25
 -13   9  -2    9.89    4.68
 -13   9  -2    6.28    3.56
  12 -10  -2  111.68    9.89
  12 -10  -2  120.33    8.36
  12 -10  -2  101.76    9.87
 -12 -10   2  104.14    9.32
 -12  10   2   88.35    9.26
 -12  10   2  110.68    9.84
 -12  10   2  110.75    9.49
  12  10  -2  101.94    9.24
 -10 -10   2   43.54    6.34
  10 -10  -2   46.86    5.44
  10 -10  -2   56.71    7.48
  10 -10  -2   54.31    6.60
 -10  10   2   55.78    4.25
  10  10  -2   58.27    5.43
 -10  10   2   49.54    6.66
 -10  10   2   60.94    7.29
 -10  10   2   46.36    6.18
   8 -10  -2   12.48    4.22
  -8 -10   2   11.89    4.11
   8 -10  -2   10.44    2.83
   8 -10  -2   17.46    3.76
  -8 -10   2   17.10    3.28
   8  10  -2   10.95    2.89
  -8  10   2   16.25    4.57
  -8  10   2    7.19    3.48
   6 -10  -2   -0.08    2.16
   6 -10  -2    4.46    2.68
   6 -10  -2    5.06    2.19
  -6 -10   2    4.68    2.71
  -6 -10   2    1.84    2.43
  -6  10   2    4.64    2.00
  -6  10   2    3.94    2.31
   6  10  -2    5.53    2.12
   6  10  -2    6.39    2.29
   4 -10  -2  232.30   11.93
  -4 -10   2  216.21   11.37
   4 -10  -2  223.32   11.10
  -4 -10   2  211.69   10.58
  -4  10   2  196.54   11.08
   4  10  -2  226.61    9.49
  -4  10   2  197.69   10.40
   4  10  -2  206.45    9.91
  -2 -10   2  158.27    7.68
   2 -10  -2  157.17    9.21
   2 -10  -2  143.87    8.45
  -2 -10   2  145.86    8.45
  -2  10   2  154.12    8.76
  -2  10   2  146.54    7.62
   2  10  -2  139.70    7.97
   2  10  -2  162.05    7.77
  -2  10   2  172.50    8.91
   0 -10  -2    7.69    2.59
   0 -10  -2    6.40    2.38
   0 -10   2   10.22    2.04
   0 -10   2    9.02    2.45
   0  10   2    7.80    1.82
   0  10  -2    9.27    1.97
   0  10   2    8.22    2.41
   0  10   2   10.03    1.74
  -2 -10  -2   14.60    3.13
  -2 -10  -2   10.97    2.59
   2 -10   2    8.92    2.05
   2 -10   2   15.86    3.26
  -2 -10  -2    9.86    2.72
   2  10   2   10.33    1.37
   2  10   2   13.62    1.50
  -2  10  -2   12.77    2.51
   4 -10   2  259.78   12.95
  -4 -10  -2  259.43   12.60
  -4 -10  -2  221.92   12.10
  -4 -10  -2  236.64   12.32
   4 -10   2  262.74   11.36
  -4  10  -2  235.39   12.63
  -4  10  -2  242.74   12.18
   6 -10   2  133.18    8.77
  -6 -10  -2  115.93    7.84
   6 -10   2  119.69    7.13
  -6 -10  -2  118.45    7.77
  -6 -10  -2  127.96    8.01
  -6  10  -2  125.68    7.95
  -6  10  -2  130.99    9.13
  -8 -10  -2    0.07    2.67
   8 -10   2    1.61    3.71
  -8 -10  -2   -2.23    3.49
   8 -10   2    8.31    3.23
  -8 -10  -2   -2.38    2.39
   8 -10   2    0.93    2.09
   8  10   2   -1.13    1.30
  -8  10  -2   -0.69    3.13
   8  10   2    1.40    2.46
  -8  10  -2    1.79    3.38
 -10 -10  -2   11.88    4.53
 -10 -10  -2   11.62    4.90
  10 -10   2   14.49    3.02
  10 -10   2   12.15    4.87
  10  10   2   11.66    3.79
 -10  10  -2   10.55    4.39
 -10  10  -2   10.33    4.36
  12 -10   2   35.68    6.57
 -12 -10  -2   45.29    6.55
  12 -10   2   45.39    5.05
 -12  10  -2   51.75    5.71
 -12  10  -2   37.19    6.46
  12  10   2   33.50    6.02
 -12  10  -2   46.74    7.09
  11 -11  -2    1.10    3.53
  11 -11  -2   -1.68    4.57
  11 -11  -2    5.73    4.87
 -11 -11   2   -0.55    4.05
 -11  11   2    3.94    4.47
 -11  11   2   -0.96    4.45
 -11  11   2   -1.39    3.86
  -9 -11   2   18.67    4.58
  -9 -11   2   23.39    4.01
   9 -11  -2   15.93    5.11
   9 -11  -2   27.30    5.60
   9 -11  -2   23.71    3.68
  -9  11   2   18.07    4.73
  -9  11   2   18.52    4.50
   9  11  -2   17.54    3.57
  -9  11   2   17.62    2.67
  -7 -11   2  167.12    8.96
   7 -11  -2  162.38    8.00
   7 -11  -2  160.18    9.47
  -7 -11   2  155.80   10.46
   7 -11  -2  147.46   10.58
   7  11  -2  138.88    8.25
  -7  11   2  141.64   10.34
  -7  11   2  165.66    9.77
   5 -11  -2   99.12    8.37
   5 -11  -2   84.85    6.61
  -5 -11   2   91.86    6.41
  -5  11   2   95.17    6.34
  -5  11   2   88.50    7.47
   5  11  -2   87.34    5.24
  -3 -11   2    0.00    2.07
   3 -11  -2   -2.61    2.46
  -3 -11   2   -1.06    2.23
   3 -11  -2    2.36    2.37
   3  11  -2   -1.90    1.51
  -3  11   2    0.57    1.62
  -3  11   2   -1.76    2.42
  -1 -11   2   90.70    5.50
   1 -11  -2   85.35    6.79
   1 -11  -2   82.52    6.30
  -1 -11   2   97.96    6.65
  -1  11   2   85.71    5.21
   1  11  -2   86.20    5.48
  -1  11   2   93.72    6.56
  -1 -11  -2  181.16    9.45
  -1 -11  -2  177.10   10.01
   1 -11   2  176.21    8.49
   1 -11   2  155.60    9.60
  -1 -11  -2  171.13    9.50
   1  11   2  174.44    7.93
  -1  11  -2  169.12    8.97
   1  11   2  163.84    9.47
   1  11   2  177.87    8.13
  -3 -11  -2   66.59    5.78
  -3 -11  -2   75.02    5.83
   3 -11   2   92.36    6.45
  -3 -11  -2   67.94    5.99
   3 -11   2   70.64    4.98
   3  11   2   78.02    3.69
   3  11   2   58.81    4.34
  -3  11  -2   73.74    5.44
  -3  11  -2   72.95    7.10
  -5 -11  -2    0.82    2.57
   5 -11   2    6.35    2.71
  -5 -11  -2    4.09    2.65
   5 -11   2    3.30    4.25
  -5 -11  -2   -0.24    2.23
  -5  11  -2    2.04    2.91
  -5  11  -2    4.39    4.17
  -7 -11  -2   36.63    5.45
   7 -11   2   28.57    5.08
  -7 -11  -2   32.96    5.65
  -7 -11  -2   32.72    4.60
   7 -11   2   42.56    4.66
  -7  11  -2   29.93    4.79
  -7  11  -2   47.29    6.69
   7  11   2   38.39    4.40
  -9 -11  -2   68.33    8.31
  -9 -11  -2   89.62    7.70
   9 -11   2   59.00    7.61
  -9 -11  -2   73.13    8.36
   9 -11   2   78.02    6.72
   9  11   2   78.04    6.61
  -9  11  -2   83.21    8.36
  -9  11  -2   78.10    7.88
  11 -11   2   76.65    9.17
 -11 -11  -2   84.82    8.99
  11 -11   2   93.21    9.43
 -11  11  -2   71.61    8.58
 -11  11  -2  100.22    9.49
  11  11   2   83.80    8.77
  10 -12  -2  119.01   10.55
  10 -12  -2  137.48   11.13
 -10 -12   2  125.72   10.93
  10  12  -2  141.63    9.02
 -10  12   2  148.34   11.48
 -10  12   2  133.00   10.17
 -10  12   2  135.71   11.33
   8 -12  -2   -0.77    4.36
  -8 -12   2    1.96    3.35
   8 -12  -2   -5.21    3.83
  -8 -12   2    6.01    4.22
   8  12  -2    1.28    3.04
  -8  12   2    1.72    4.24
  -8  12   2    1.89    3.40
   6 -12  -2   36.43    5.11
   6 -12  -2   44.33    6.85
  -6 -12   2   38.22    4.70
  -6 -12   2   37.38    6.05
  -6  12   2   41.10    5.10
   6  12  -2   44.64    4.32
  -6  12   2   39.21    6.12
  -4 -12   2   38.08    4.71
   4 -12  -2   32.25    4.46
  -4 -12   2   35.00    4.05
   4 -12  -2   20.82    4.91
  -4  12   2   29.61    4.38
   4  12  -2   31.78    3.63
  -4  12   2   22.21    4.96
   2 -12  -2   56.40    6.99
  -2 -12   2   58.36    5.66
   2 -12  -2   58.13    5.75
  -2 -12   2   50.27    4.88
  -2  12   2   60.41    5.89
  -2  12   2   64.52    4.61
   2  12  -2   62.51    4.69
   0 -12   2   52.44    5.70
   0 -12   2   70.03    5.02
   0 -12  -2   53.44    7.60
   0 -12  -2   62.79    5.76
   0  12   2   59.38    5.69
   0  12  -2   60.48    4.89
   0  12   2   67.26    4.25
   2 -12   2    4.31    2.41
   2 -12   2    1.46    2.87
  -2 -12  -2    0.45    2.74
  -2 -12  -2   -2.36    2.58
   2  12   2    2.31    2.61
   2  12   2    1.01    1.83
  -2  12  -2    4.57    3.90
   2  12   2    2.94    1.42
   4 -12   2   70.85    5.57
  -4 -12  -2   63.26    6.13
   4 -12   2   71.19    8.01
  -4 -12  -2   78.07    8.00
  -4 -12  -2   72.53    6.26
  -4  12  -2   67.80    6.73
  -4  12  -2   55.07    7.06
   6 -12   2  226.63   10.73
  -6 -12  -2  175.37   12.63
   6 -12   2  200.26   12.81
  -6 -12  -2  198.67   12.16
  -6  12  -2  188.48   11.63
   6  12   2  184.34   10.27
  -6  12  -2  197.38   12.78
  -8 -12  -2    8.84    4.92
  -8 -12  -2    1.90    4.39
  -8 -12  -2    3.55    4.65
   8 -12   2   11.91    4.87
   8 -12   2   12.96    3.75
   8  12   2    5.05    3.31
  -8  12  -2    2.08    3.90
  -8  12  -2   10.64    4.67
  10 -12   2   12.56    5.37
 -10 -12  -2   31.92    6.81
 -10 -12  -2   24.91    6.54
  10 -12   2   26.33    5.21
 -10  12  -2   30.29    6.38
  10  12   2   20.14    5.49
 -10  12  -2   28.44    5.85
  -7 -13   2   89.07    7.69
   7 -13  -2   79.57    9.04
   7 -13  -2   84.73    9.18
  -7  13   2   82.59    9.22
   7  13  -2   86.90    6.19
  -7  13   2   88.72    8.08
   5 -13  -2    3.68    4.00
  -5 -13   2    7.61    3.44
   5 -13  -2    6.88    4.11
  -5  13   2   12.52    4.72
   5  13  -2    5.20    2.44
  -5  13   2    4.63    3.31
   3 -13  -2   -1.89    3.72
   3 -13  -2    5.47    3.62
  -3 -13   2    8.61    3.24
  -3 -13   2    2.94    3.08
  -3  13   2    1.28    2.97
   3  13  -2    4.56    2.36
  -3  13   2    1.71    3.58
   1 -13  -2   19.61    4.95
  -1 -13   2   39.04    4.03
  -1 -13   2   40.76    6.59
   1 -13  -2   35.11    4.69
  -1  13   2   27.21    5.55
  -1  13   2   28.85    3.39
   1  13  -2   24.60    6.26
  -1 -13  -2   98.23    8.71
   1 -13   2  101.74    9.07
  -1 -13  -2   94.37    7.28
   1 -13   2  101.47    6.61
  -1  13  -2   91.32    8.82
   1  13   2   95.17    9.04
  -1  13  -2   87.69    7.24
   1  13   2   98.86    5.50
  -3 -13  -2   20.10    4.99
   3 -13   2   19.33    4.94
   3 -13   2   23.91    3.88
  -3 -13  -2   22.12    4.15
   3  13   2   18.78    2.09
   3  13   2   24.96    3.34
  -3  13  -2   15.52    3.95
  -3  13  -2   25.01    5.67
   5 -13   2   -2.79    4.45
  -5 -13  -2    2.50    4.40
  -5 -13  -2    1.50    4.32
  -5 -13  -2    2.51    4.20
   5 -13   2    4.28    3.30
   5  13   2    0.94    2.95
  -5  13  -2   -1.65    3.49
  -5  13  -2    4.76    4.45
  -7 -13  -2   18.35    5.26
   7 -13   2   20.10    5.49
  -7 -13  -2    8.99    5.04
   7 -13   2   27.91    4.62
  -7 -13  -2   14.33    5.17
  -7  13  -2   20.47    5.57
  -7  13  -2   18.45    4.93
   7  13   2   27.23    4.58
   4 -14  -2   11.11    5.42
   4 -14  -2   16.26    5.65
  -4 -14   2    5.27    4.74
   4  14  -2   14.43    3.73
  -4  14   2   10.14    3.69
  -4  14   2    7.64    4.55
  -2 -14   2   28.32    5.99
   2 -14  -2   16.53    5.51
  -2 -14   2   31.67    4.39
   2  14  -2   20.55    3.86
  -2  14   2   19.81    3.79
  -2  14   2   17.21    5.09
   0 -14   2   21.28    5.49
   0 -14  -2   17.42    5.56
   0 -14   2   26.07    4.19
   0  14   2   20.74    5.10
   0  14  -2   19.55    5.58
   0  14   2   15.00    4.10
   0  14  -2   16.55    3.89
   2 -14   2    9.57    5.25
  -2 -14  -2   22.70    5.56
   2 -14   2   19.70    4.00
  -2 -14  -2   18.59    5.60
   2  14   2    9.19    4.57
  -2  14  -2   21.52    5.62
   2  14   2   17.39    2.43
  -2  14  -2   18.43    4.31
   4 -14   2   47.55    5.19
  -4 -14  -2   37.03    6.50
  -4 -14  -2   56.92    7.47
   4 -14   2   45.38    7.01
  -4 -14  -2   41.86    7.10
   4  14   2   47.63    6.21
  -4  14  -2   54.45    7.96
  -4  14  -2   41.66    5.91
 -16   0   3   -4.70    3.90
 -16   0   3    4.09    4.04
 -16   0   3    1.82    2.90
  16   0  -3    3.76    3.32
  16   0  -3    3.21    4.57
 -16   0   3   -2.06    2.89
 -14   0   3    1.45    2.27
 -14   0   3   -2.95    2.31
 -14   0   3    0.36    2.87
 -14   0   3   -0.13    2.94
  14   0  -3   -0.75    2.43
  14   0  -3   -1.46    3.57
 -12   0   3    1.50    1.95
  12   0  -3   -2.55    1.69
  12   0  -3   -2.01    2.18
 -12   0   3   -2.06    2.23
 -12   0   3   -1.03    1.89
 -12   0   3    0.26    1.83
  10   0  -3    1.22    1.77
 -10   0   3    1.29    1.72
 -10   0   3    0.51    1.46
 -10   0   3    0.15    1.73
  10   0  -3    0.63    1.41
 -10   0   3    1.05    1.37
   8   0  -3   -0.91    0.95
  -8   0   3    3.28    1.58
   8   0  -3    0.78    1.57
  -8   0   3    1.99    1.32
  -8   0   3    1.01    1.13
  -8   0   3   -0.04    1.32
  -6   0   3    1.05    1.02
  -6   0   3   -0.53    0.96
   6   0  -3    0.96    0.73
   6   0  -3   -1.16    1.19
  -6   0   3    0.67    0.79
  -6   0   3    1.78    1.16
  -4   0   3   -1.01    0.78
  -4   0   3    1.00    0.91
  -4   0   3    0.91    0.79
   4   0  -3   -0.05    0.81
   4   0  -3    1.06    0.52
  -4   0   3    0.07    0.91
  -4   0   3   -0.31    0.56
   2   0  -3   -0.95    0.80
  -2   0   3    1.40    0.71
   2   0  -3   -0.04    0.44
  -2   0   3   -0.21    0.61
  -2   0   3   -0.05    0.68
  -2   0   3   -0.65    0.60
   0   0  -3    0.58    0.55
   0   0   3    0.61    0.59
   0   0  -3    0.14    0.66
   0   0  -3    0.09    0.54
   0   0   3    0.18    0.63
   0   0   3    0.39    0.80
   0   0  -3    0.10    0.51
   2   0   3    0.11    0.67
  -2   0  -3    0.09    0.72
   2   0   3    0.65    0.48
  -2   0  -3    1.33    0.78
  -2   0  -3   -0.75    0.68
  -4   0  -3    0.55    0.91
  -4   0  -3   -0.69    0.78
  -4   0  -3   -0.06    0.97
  -4   0  -3   -0.41    0.64
   4   0   3    0.24    0.81
   4   0   3    0.42    0.78
  -6   0  -3   -0.63    0.91
  -6   0  -3    0.83    1.19
  -6   0  -3    0.29    0.92
  -6   0  -3   -0.07    1.20
   6   0   3    0.05    0.99
  -8   0  -3    0.16    1.23
   8   0   3    1.26    1.35
  -8   0  -3    0.59    1.45
  -8   0  -3    0.11    1.56
  -8   0  -3   -0.74    1.09
 -10   0  -3   -2.29    1.48
 -10   0  -3    1.10    1.25
  10   0   3    1.59    1.71
 -10   0  -3   -3.81    1.46
 -10   0  -3   -1.32    1.88
 -10   0  -3   -0.36    0.88
  12   0   3   -0.57    2.20
 -12   0  -3   -2.67    2.14
 -12   0  -3   -1.99    1.88
  14   0   3   -3.67    3.54
 -14   0  -3   -3.14    3.23
 -14   0  -3   -0.51    2.41
 -14   0  -3    0.78    3.43
 -16   0  -3    4.08    4.45
 -16   0  -3   -3.01    4.75
  16   0   3   -0.85    4.38
 -17  -1   3   29.59    4.31
 -17  -1   3   29.10    5.49
 -17  -1   3   35.00    6.22
 -17  -1   3   25.82    5.47
  17  -1  -3   33.81    6.56
  17  -1  -3   42.93    5.32
 -17   1   3   31.57    4.74
 -17   1   3   19.15    5.84
  17   1  -3   32.49    6.57
  17   1  -3   42.73    5.26
 -17   1   3   23.22    5.59
 -17   1   3   28.52    4.68
 -15  -1   3    5.01    3.49
  15  -1  -3    2.55    3.11
 -15  -1   3    8.57    3.00
 -15  -1   3    9.81    3.80
 -15  -1   3    3.74    2.98
  15  -1  -3    4.34    3.88
 -15   1   3   -2.43    2.54
 -15   1   3    0.98    2.56
  15   1  -3    4.19    2.80
  15   1  -3    4.03    3.64
 -15   1   3    3.47    3.24
 -15   1   3   -0.84    3.14
 -13  -1   3    5.77    2.34
  13  -1  -3    9.83    2.49
 -13  -1   3   10.05    2.98
  13  -1  -3    3.69    2.67
 -13  -1   3    5.50    2.29
 -13  -1   3    3.26    2.11
 -13   1   3    4.88    2.63
 -13   1   3    4.15    2.21
  13   1  -3    8.71    3.37
 -13   1   3    7.07    2.83
 -13   1   3    4.06    2.14
  11  -1  -3   90.20    5.59
 -11  -1   3   98.00    6.42
 -11  -1   3   98.48    5.96
 -11  -1   3   83.64    5.92
  11  -1  -3   87.76    6.39
 -11  -1   3  100.21    5.64
 -11   1   3   94.73    6.28
 -11   1   3   96.98    5.72
 -11   1   3   90.77    6.34
 -11   1   3   90.56    5.50
  11   1  -3  100.98    6.62
   9  -1  -3   12.69    2.00
  -9  -1   3    3.69    1.75
  -9  -1   3   12.48    2.28
  -9  -1   3    8.75    1.73
   9  -1  -3   10.45    2.38
  -9  -1   3   10.46    1.99
   9   1  -3    8.08    2.48
  -9   1   3    7.40    1.68
  -9   1   3    7.55    1.99
  -9   1   3    8.92    1.95
  -9   1   3    8.10    2.06
  -7  -1   3    9.86    1.99
  -7  -1   3   13.70    2.06
   7  -1  -3   13.11    1.72
   7  -1  -3    9.45    2.08
  -7  -1   3   10.81    1.82
  -7  -1   3   11.96    1.85
  -7   1   3   11.04    1.85
   7   1  -3   13.31    2.18
   7   1  -3   12.26    1.33
  -7   1   3   11.69    2.05
  -7   1   3   12.23    1.57
  -7   1   3    7.55    1.76
   5  -1  -3   44.78    3.28
  -5  -1   3   37.61    2.96
  -5  -1   3   42.52    2.89
  -5  -1   3   40.01    2.75
   5  -1  -3   45.74    2.63
  -5  -1   3   41.53    2.97
   5  -1  -3   52.64    2.98
  -5   1   3   47.33    3.07
   5   1  -3   41.92    3.16
  -5   1   3   46.26    3.16
  -5   1   3   45.40    2.41
   5   1  -3   44.52    2.06
  -5   1   3   43.39    3.12
  -3  -1   3    3.98    1.05
   3  -1  -3    5.72    1.21
  -3  -1   3    4.77    1.06
  -3  -1   3    4.90    0.99
  -3  -1   3    5.03    1.14
   3  -1  -3    5.98    0.98
   3  -1  -3    7.86    0.88
  -3  -1   3    6.63    0.69
   3   1  -3    7.13    1.27
  -3   1   3    5.11    1.15
   3   1  -3    5.94    0.58
  -3   1   3    5.88    1.15
  -3   1   3    5.49    1.01
   1  -1  -3  235.00   10.45
  -1  -1   3  248.86   10.54
   1  -1  -3  258.05   10.60
  -1  -1   3  258.25   10.27
   1  -1  -3  268.73   10.69
   1  -1  -3  254.37   10.27
  -1   1   3  257.40   10.53
   1   1  -3  248.06   10.20
  -1   1   3  249.34   10.22
  -1   1   3  247.03   10.48
  -1  -1  -3   53.93    2.94
  -1  -1  -3   51.75    2.78
  -1  -1  -3   51.72    2.96
   1  -1   3   46.69    2.97
   1  -1   3   52.34    2.70
   1  -1   3   55.99    2.98
  -1  -1  -3   54.74    2.21
  -1   1  -3   48.64    3.02
   1   1   3   51.32    2.74
  -1   1  -3   55.87    2.61
   1   1   3   52.17    2.65
  -3  -1  -3    7.25    1.17
   3  -1   3    7.06    1.08
  -3  -1  -3   10.23    1.05
  -3  -1  -3    8.74    1.36
  -3  -1  -3    8.10    0.68
   3  -1   3    8.03    1.44
  -3  -1  -3    9.10    1.42
   3   1   3    8.66    0.91
   3   1   3    8.66    1.24
  -3   1  -3    8.74    1.40
   3   1   3    8.57    1.36
  -3   1  -3    7.84    1.11
  -3   1  -3    9.95    1.13
  -5  -1  -3   12.65    1.63
  -5  -1  -3   12.80    1.32
  -5  -1  -3   11.83    1.02
  -5  -1  -3   10.83    1.85
  -5  -1  -3   11.15    1.87
   5  -1   3    8.10    1.54
  -5   1  -3    8.21    1.68
  -5   1  -3   12.44    1.54
   5   1   3    8.61    1.36
   5   1   3   11.88    1.69
  -7  -1  -3  131.54    6.93
  -7  -1  -3  125.24    5.96
  -7  -1  -3  125.37    6.48
   7  -1   3  133.84    6.84
  -7   1  -3  123.62    6.82
  -7   1  -3  126.04    6.25
  -7   1  -3  128.52    6.80
   7   1   3  121.43    6.48
  -9  -1  -3    5.68    1.93
   9  -1   3    5.83    2.00
  -9  -1  -3    3.81    2.00
  -9  -1  -3    3.28    1.51
  -9   1  -3    4.82    1.91
  -9   1  -3    2.35    1.56
   9   1   3    3.63    1.71
  -9   1  -3    1.87    1.82
 -11  -1  -3    2.18    1.95
  11  -1   3    1.26    2.01
 -11  -1  -3    3.21    2.42
 -11  -1  -3    1.01    1.67
 -11   1  -3    1.99    2.05
  11   1   3    1.70    2.34
 -11   1  -3    1.27    1.37
 -11   1  -3    2.72    1.88
 -11   1  -3   -1.17    2.26
  13  -1   3   10.74    3.07
 -13  -1  -3   12.75    3.18
 -13  -1  -3   17.72    3.63
 -13  -1  -3    9.13    2.51
  13   1   3   14.86    5.83
 -13   1  -3   12.30    2.83
 -13   1  -3   16.68    3.85
 -13   1  -3    7.80    2.89
  15  -1   3   12.16    4.34
 -15  -1  -3   23.74    5.09
 -15  -1  -3   22.32    3.70
 -15  -1  -3    7.92    4.32
 -15   1  -3   19.40    4.71
 -15   1  -3   15.96    4.62
 -15   1  -3   15.39    3.61
  15   1   3   16.09    4.82
  17  -1   3   21.10    6.83
 -17  -1  -3   25.81    6.46
 -17  -1  -3   34.92    6.08
  17   1   3   33.29    6.70
 -17   1  -3   43.90    6.88
 -17   1  -3   28.38    6.18
 -17   1  -3   31.84    5.65
 -16  -2   3    5.02    3.02
  16  -2  -3    5.37    3.52
 -16  -2   3   -0.95    3.81
  16  -2  -3    6.46    4.31
 -16  -2   3    1.33    4.03
 -16  -2   3    1.36    4.44
  16   2  -3    1.79    3.15
 -16   2   3   -0.38    2.86
 -16   2   3    4.26    3.34
 -16   2   3    5.87    4.45
 -16   2   3    0.22    4.00
  16   2  -3    9.01    4.68
  14  -2  -3   35.46    4.46
 -14  -2   3   30.56    4.29
 -14  -2   3   31.22    4.82
 -14  -2   3   27.31    4.62
 -14  -2   3   31.15    3.62
  14  -2  -3   26.05    5.09
 -14   2   3   34.82    4.97
 -14   2   3   32.25    3.90
 -14   2   3   35.35    5.20
  14   2  -3   25.59    5.58
 -14   2   3   37.93    4.30
 -12  -2   3   74.76    5.75
 -12  -2   3   86.65    5.21
  12  -2  -3   83.99    5.73
 -12  -2   3   73.72    5.65
  12  -2  -3   76.90    6.24
 -12   2   3   76.36    6.16
  12   2  -3   81.78    6.28
 -12   2   3   81.46    5.24
 -12   2   3   79.06    5.66
 -12   2   3   80.18    6.06
  10  -2  -3   -0.13    1.82
 -10  -2   3   -0.86    1.66
 -10  -2   3   -1.14    1.57
  10  -2  -3   -2.32    1.64
 -10  -2   3   -0.83    1.95
 -10  -2   3    1.63    1.40
 -10   2   3    2.55    1.66
 -10   2   3   -0.90    1.65
 -10   2   3    0.35    1.34
  10   2  -3    0.50    1.87
 -10   2   3   -1.64    1.74
  -8  -2   3   15.73    2.52
  -8  -2   3   17.42    2.28
   8  -2  -3   16.55    2.63
  -8  -2   3   17.17    2.42
   8  -2  -3   16.59    2.22
  -8  -2   3   17.01    2.35
  -8   2   3   15.83    2.36
  -8   2   3   16.83    1.85
   8   2  -3   15.02    1.88
  -8   2   3   21.38    2.57
   8   2  -3   21.99    3.11
  -8   2   3   18.75    2.74
   6  -2  -3    5.98    1.68
  -6  -2   3    8.01    1.54
  -6  -2   3    7.82    1.53
  -6  -2   3    5.95    1.53
   6  -2  -3    8.15    1.30
  -6  -2   3    7.37    1.46
   6  -2  -3    7.23    1.49
  -6   2   3    8.77    1.66
   6   2  -3    7.32    0.65
  -6   2   3   10.03    1.95
   6   2  -3    7.52    0.70
   6   2  -3    5.11    1.54
  -6   2   3    8.51    1.01
  -6   2   3    7.21    1.64
  -4  -2   3    0.25    0.88
   4  -2  -3    0.30    0.99
  -4  -2   3    2.15    0.99
   4  -2  -3    0.83    0.79
  -4  -2   3   -0.58    0.82
   4  -2  -3    0.44    0.47
  -4   2   3    1.27    0.84
  -4   2   3    0.45    1.00
  -4   2   3    0.95    0.94
   4   2  -3   -0.41    0.88
   2  -2  -3  252.73   10.39
   2  -2  -3  260.71   10.32
  -2  -2   3  228.16   10.13
  -2  -2   3  241.54   10.27
   2  -2  -3  231.16   10.33
  -2   2   3  238.10   10.17
  -2   2   3  238.44   10.27
  -2   2   3  250.85   10.08
   2   2  -3  225.88   10.09
   0  -2  -3   28.50    2.35
   0  -2  -3   33.45    2.40
   0  -2  -3   38.42    1.98
   0  -2   3   37.13    2.37
   0  -2  -3   36.06    2.01
   0  -2   3   36.83    1.73
   0  -2  -3   32.95    2.31
   0   2  -3   36.12    2.13
   0   2  -3   39.15    1.71
   0   2   3   37.69    2.13
   0   2   3   38.81    1.87
   0   2   3   37.68    2.23
   2  -2   3   25.89    2.09
  -2  -2  -3   22.66    2.11
  -2  -2  -3   21.28    1.87
  -2  -2  -3   18.93    1.79
  -2  -2  -3   20.85    2.03
   2  -2   3   24.67    1.75
   2   2   3   20.25    1.53
   2   2   3   20.73    1.47
  -2   2  -3   20.82    1.93
  -4  -2  -3   64.15    3.21
  -4  -2  -3   55.19    3.62
   4  -2   3   60.03    3.67
  -4  -2  -3   56.03    3.68
  -4   2  -3   61.06    3.79
   4   2   3   58.73    2.69
  -4   2  -3   55.44    3.40
   4   2   3   58.54    2.63
   4   2   3   61.34    3.37
   4   2   3   58.09    3.25
  -6  -2  -3   23.09    2.75
   6  -2   3   19.72    2.60
  -6  -2  -3   17.43    2.45
  -6  -2  -3   17.15    2.13
  -6  -2  -3   17.80    2.01
  -6   2  -3   19.70    2.32
  -6   2  -3   18.13    2.45
   6   2   3   21.36    2.23
   8  -2   3    2.37    1.72
  -8  -2  -3    1.17    1.18
  -8  -2  -3    0.73    1.60
  -8  -2  -3    0.92    1.49
  -8   2  -3    2.97    1.74
   8   2   3    1.95    1.23
  -8   2  -3    2.64    1.85
  -8   2  -3    0.81    1.42
  10  -2   3   11.42    2.62
 -10  -2  -3   13.62    2.68
 -10  -2  -3   16.05    2.27
 -10  -2  -3   14.98    2.92
 -10   2  -3   11.49    2.61
 -10   2  -3   18.31    3.16
  10   2   3    7.55    2.18
 -10   2  -3    9.76    2.34
 -12  -2  -3   37.78    4.19
 -12  -2  -3   41.85    3.92
 -12  -2  -3   27.81    4.07
  12  -2   3   25.36    3.91
 -12   2  -3   27.78    3.70
 -12   2  -3   30.83    3.37
 -12   2  -3   32.61    4.20
  12   2   3   24.77    4.28
 -12   2  -3   27.69    4.27
 -14  -2  -3   30.55    4.80
  14  -2   3   20.93    4.79
 -14  -2  -3   26.17    3.64
 -14  -2  -3   26.79    5.30
  14   2   3   23.51    4.79
 -14   2  -3   20.26    4.30
 -14   2  -3   17.84    3.30
 -14   2  -3   31.85    3.60
 -16  -2  -3    9.05    4.53
 -16  -2  -3   -1.81    2.92
  16  -2   3   -1.26    4.81
 -16   2  -3   -3.72    4.37
 -16   2  -3   -0.90    3.95
 -16   2  -3    2.33    4.16
  16   2   3   -2.26    4.39
 -17  -3   3   36.21    6.71
  17  -3  -3   32.52    6.67
 -17  -3   3   34.36    6.30
  17  -3  -3   33.54    7.03
 -17   3   3   30.59    6.41
 -17   3   3   32.98    4.57
  17   3  -3   19.21    6.33
 -17   3   3   26.04    6.93
 -17   3   3   33.59    5.36
 -15  -3   3   44.74    6.27
  15  -3  -3   65.55    6.15
 -15  -3   3   67.35    6.68
 -15  -3   3   50.49    6.40
 -15  -3   3   50.25    5.02
  15  -3  -3   51.35    6.94
 -15   3   3   50.85    5.02
 -15   3   3   48.39    7.06
  15   3  -3   51.22    7.17
 -15   3   3   52.31    6.92
 -15   3   3   59.78    5.60
 -13  -3   3   25.24    4.08
 -13  -3   3   20.29    2.93
 -13  -3   3   22.07    3.81
 -13  -3   3   26.63    4.19
  13  -3  -3   26.36    3.92
  13  -3  -3   26.70    4.06
 -13   3   3   20.57    4.02
 -13   3   3   27.57    3.69
 -13   3   3   22.36    3.20
  13   3  -3   28.90    5.16
  11  -3  -3   49.65    4.79
 -11  -3   3   42.80    3.64
 -11  -3   3   45.03    4.67
 -11  -3   3   43.69    4.38
 -11  -3   3   46.95    4.34
  11  -3  -3   42.11    4.38
 -11   3   3   43.10    4.21
 -11   3   3   40.89    4.32
  11   3  -3   46.56    4.61
 -11   3   3   42.17    4.65
 -11   3   3   46.50    3.49
  -9  -3   3  104.72    6.54
  -9  -3   3  112.62    6.02
  -9  -3   3  115.84    6.70
   9  -3  -3  120.49    6.87
   9  -3  -3  119.78    6.58
  -9  -3   3  129.26    6.64
  -9   3   3  104.11    6.73
   9   3  -3  121.89    5.46
  -9   3   3  117.68    5.58
   9   3  -3  101.44    6.60
  -9   3   3  118.57    6.96
  -9   3   3  105.80    6.39
   7  -3  -3  171.78    8.26
  -7  -3   3  168.05    8.41
  -7  -3   3  164.39    8.02
   7  -3  -3  164.53    8.48
  -7  -3   3  173.62    8.40
  -7  -3   3  168.13    7.93
   7   3  -3  164.00    6.78
   7   3  -3  177.88    8.51
  -7   3   3  163.58    8.21
  -7   3   3  177.73    8.58
  -7   3   3  165.20    8.43
  -7   3   3  173.28    7.19
   5  -3  -3   44.15    3.11
  -5  -3   3   40.56    2.91
  -5  -3   3   38.45    3.11
   5  -3  -3   45.93    3.27
  -5  -3   3   42.54    2.99
  -5   3   3   38.59    2.96
  -5   3   3   39.74    1.78
   5   3  -3   42.07    3.15
  -5   3   3   45.44    3.25
  -5   3   3   42.49    3.24
  -3  -3   3  142.57    5.40
   3  -3  -3  132.60    6.32
   3  -3  -3  124.96    6.29
  -3  -3   3  130.87    6.27
  -3  -3   3  127.36    6.33
   3  -3  -3  135.99    6.51
  -3  -3   3  128.42    6.07
  -3   3   3  125.67    6.19
   3   3  -3  137.03    6.17
  -3   3   3  130.12    6.21
  -3   3   3  131.25    6.37
  -1  -3   3  390.92   15.60
   1  -3  -3  390.58   15.53
   1  -3  -3  356.90   14.84
   1  -3  -3  370.95   15.67
  -1  -3   3  389.41   15.42
   1  -3  -3  350.57   15.55
  -1   3   3  377.64   15.48
   1   3  -3  381.91   14.61
   1   3  -3  359.94   15.09
  -1   3   3  380.19   15.22
   1  -3   3   49.76    2.88
  -1  -3  -3   52.08    3.33
  -1  -3  -3   54.71    3.36
   1  -3   3   55.46    2.35
  -1  -3  -3   52.82    2.98
   1   3   3   53.41    2.66
   1   3   3   54.15    2.56
   1   3   3   57.67    2.99
  -1   3  -3   53.74    3.28
  -3  -3  -3   17.42    2.09
  -3  -3  -3   18.89    1.31
  -3  -3  -3   16.50    2.03
  -3  -3  -3   19.38    2.21
   3  -3   3   18.82    2.07
  -3   3  -3   20.05    2.13
   3   3   3   19.32    1.23
   3   3   3   18.37    1.49
   3   3   3   18.21    1.54
   3   3   3   20.34    1.47
  -5  -3  -3   47.66    3.72
  -5  -3  -3   46.52    3.59
   5  -3   3   51.35    3.64
  -5  -3  -3   53.06    3.38
  -5   3  -3   47.35    3.37
   5   3   3   47.78    2.23
   5   3   3   49.70    2.92
  -5   3  -3   44.72    3.61
   5   3   3   49.21    3.01
   5   3   3   49.96    2.94
  -7  -3  -3   76.08    5.16
   7  -3   3   74.68    5.02
  -7  -3  -3   68.65    4.93
   7   3   3   74.01    4.97
  -7   3  -3   76.84    5.03
   7   3   3   76.00    4.28
  -7   3  -3   73.27    4.65
   9  -3   3  186.24    9.64
   9  -3   3  186.58    9.28
  -9  -3  -3  168.40    9.48
  -9  -3  -3  193.15    8.60
  -9  -3  -3  181.04    8.31
  -9   3  -3  173.83    9.49
   9   3   3  167.06    8.70
  -9   3  -3  176.49    9.01
  -9   3  -3  180.21    9.33
 -11  -3  -3   21.54    2.58
 -11  -3  -3   22.11    3.80
 -11  -3  -3   23.69    3.48
  11  -3   3   18.15    3.32
 -11   3  -3   24.22    3.37
 -11   3  -3   21.45    3.69
 -11   3  -3   12.96    2.93
  13  -3   3   46.98    5.27
 -13  -3  -3   43.82    4.35
 -13  -3  -3   52.18    7.81
 -13  -3  -3   33.79    5.59
  13   3   3   42.07    6.13
 -13   3  -3   56.10    5.17
 -13   3  -3   54.43    5.27
 -13   3  -3   46.41    4.42
 -13   3  -3   45.46    5.53
  15  -3   3   92.95    9.25
 -15  -3  -3  117.77    9.73
 -15  -3  -3  109.93    7.59
 -15   3  -3  105.79    9.18
 -15   3  -3  122.47    9.35
 -15   3  -3  107.62    9.06
 -15   3  -3  109.88    6.97
  15   3   3  109.72    9.69
  16  -4  -3    2.15    4.81
 -16  -4   3   -4.58    3.30
 -16  -4   3   -5.02    3.68
  16  -4  -3   -2.20    4.41
 -16   4   3    2.05    2.92
 -16   4   3    4.08    4.72
 -16   4   3    6.90    3.94
  16   4  -3   -1.15    4.61
 -16   4   3   -6.79    3.57
 -14  -4   3   85.27    6.01
  14  -4  -3   80.81    8.10
  14  -4  -3   90.84    6.94
 -14  -4   3   78.22    8.61
 -14  -4   3   85.62    7.66
 -14  -4   3   69.88    7.72
 -14   4   3   85.41    5.84
  14   4  -3   80.39    7.97
 -14   4   3   88.93    7.90
 -14   4   3   91.50   11.60
 -14   4   3   80.31    6.57
  12  -4  -3  131.52    8.06
 -12  -4   3  145.68    8.13
 -12  -4   3  128.49    8.01
  12  -4  -3  123.24    8.07
 -12  -4   3  122.42    7.94
 -12   4   3  126.04    8.29
 -12   4   3  134.28    6.79
 -12   4   3  125.12    7.67
  12   4  -3  133.79    8.27
 -12   4   3  131.07    8.37
  10  -4  -3  133.09    7.80
  10  -4  -3  159.46    8.44
 -10  -4   3  124.03    7.77
 -10  -4   3  133.93    7.07
 -10  -4   3  142.10    7.60
 -10   4   3  144.39    6.57
 -10   4   3  133.07    7.92
 -10   4   3  138.00    8.25
  10   4  -3  139.90    8.11
 -10   4   3  142.67    7.80
  -8  -4   3   16.17    2.50
   8  -4  -3   16.14    2.53
  -8  -4   3   11.22    1.89
  -8  -4   3   13.08    2.30
   8  -4  -3   14.06    2.57
  -8   4   3   13.47    2.51
  -8   4   3   14.82    1.54
  -8   4   3   16.08    2.62
   8   4  -3   16.84    1.39
  -8   4   3   13.05    2.60
   8   4  -3   16.82    2.61
   6  -4  -3  335.56   15.30
  -6  -4   3  380.47   15.57
  -6  -4   3  354.23   14.74
  -6  -4   3  341.65   14.91
   6  -4  -3  361.38   15.29
  -6   4   3  338.82   15.32
   6   4  -3  343.32   13.75
   6   4  -3  340.78   15.18
  -6   4   3  369.46   13.73
  -6   4   3  349.40   15.34
  -6   4   3  337.89   15.31
  -4  -4   3  263.44   11.82
  -4  -4   3  290.64   12.22
  -4  -4   3  285.79   11.58
  -4  -4   3  287.25   10.91
   4  -4  -3  265.64   11.86
   4  -4  -3  258.66   12.11
   4  -4  -3  265.41   12.10
  -4   4   3  262.15   12.00
   4   4  -3  268.82   11.72
  -4   4   3  273.11   11.93
  -4   4   3  270.02   11.98
  -2  -4   3  165.07    7.17
   2  -4  -3  165.65    7.64
   2  -4  -3  156.77    7.87
   2  -4  -3  165.67    7.94
   2  -4  -3  173.74    6.78
  -2  -4   3  157.34    7.68
  -2  -4   3  170.78    7.44
  -2   4   3  169.24    6.78
   2   4  -3  171.89    6.89
  -2   4   3  162.35    7.43
  -2   4   3  159.56    7.51
  -2   4   3  173.61    7.83
   0  -4   3   40.30    2.35
   0  -4   3   38.79    2.69
   0  -4  -3   37.93    2.90
   0  -4  -3   35.83    2.87
   0   4   3   36.15    2.31
   0   4  -3   40.15    2.08
   0   4   3   38.58    2.22
   0   4   3   37.22    2.65
   2  -4   3  312.59   12.82
   2  -4   3  346.62   13.80
  -2  -4  -3  318.64   13.94
  -2  -4  -3  326.74   13.98
   2  -4   3  302.42   12.96
  -2  -4  -3  336.49   13.58
   2   4   3  305.43   12.84
  -2   4  -3  319.30   13.84
   2   4   3  326.38   13.30
  -4  -4  -3  302.79   13.64
  -4  -4  -3  296.95   13.36
  -4  -4  -3  309.54   13.60
   4  -4   3  315.09   13.47
   4   4   3  313.23   12.49
  -4   4  -3  313.72   13.40
  -4   4  -3  319.56   13.68
   4   4   3  317.98   12.50
   4   4   3  271.27   12.64
  -6  -4  -3   71.24    4.91
   6  -4   3   79.26    4.98
  -6  -4  -3   77.52    5.10
   6   4   3   77.41    4.05
   6   4   3   77.05    4.07
  -6   4  -3   74.00    5.06
  -6   4  -3   73.54    4.72
   6   4   3   75.75    3.33
  -8  -4  -3    4.08    1.91
   8  -4   3    2.96    1.76
  -8  -4  -3    4.46    1.56
   8  -4   3    0.39    1.54
  -8  -4  -3    0.19    1.84
  -8   4  -3    1.83    1.80
   8   4   3    8.44    2.07
  -8   4  -3    1.93    1.66
   8   4   3    2.29    1.33
  10  -4   3   99.25    6.55
 -10  -4  -3   97.56    6.67
 -10   4  -3  101.89    6.60
 -10   4  -3  110.11    6.98
 -10   4  -3  108.96    6.73
  12  -4   3  253.32   13.13
 -12  -4  -3  281.19   14.30
 -12   4  -3  261.37   13.64
  12   4   3  267.97   14.03
 -12   4  -3  266.49   13.20
 -12   4  -3  247.68   13.00
  14  -4   3   13.85    5.29
 -14  -4  -3   10.18    4.06
 -14   4  -3   15.39    4.21
  14   4   3   18.36    5.11
 -14   4  -3   12.40    6.99
 -14   4  -3   20.01    3.44
  16  -4   3   -2.22    4.81
 -16  -4  -3    6.23    4.88
 -16   4  -3    8.34    4.74
 -16   4  -3    6.04    4.70
 -16   4  -3   13.42    6.02
 -16   4  -3   16.56    3.86
  16   4   3   11.25    5.37
 -15  -5   3   70.84    5.99
  15  -5  -3   69.71    8.10
  15  -5  -3   65.84    8.23
 -15  -5   3   64.02    7.93
 -15   5   3   70.27    8.10
  15   5  -3   76.46    8.52
 -15   5   3   67.49    8.30
 -15   5   3   65.73    5.50
  13  -5  -3    3.11    2.74
  13  -5  -3    4.82    2.83
 -13  -5   3   -0.44    2.30
 -13   5   3    4.84    3.52
 -13   5   3    3.71    2.59
 -13   5   3    1.10    2.03
  13   5  -3    0.34    3.51
  11  -5  -3   24.15    3.79
 -11  -5   3   26.28    3.11
 -11  -5   3   26.48    4.08
 -11  -5   3   26.73    3.68
  11  -5  -3   25.41    3.76
 -11   5   3   14.52    3.14
 -11   5   3   28.02    2.60
  11   5  -3   23.51    3.83
 -11   5   3   20.91    3.32
 -11   5   3   22.12    3.79
  -9  -5   3  185.01    9.75
   9  -5  -3  178.95    9.58
   9  -5  -3  182.99    9.66
  -9  -5   3  192.14    8.96
  -9  -5   3  186.03    8.93
  -9   5   3  187.67    9.53
  -9   5   3  181.38    9.84
  -9   5   3  179.88    9.75
   9   5  -3  170.11    7.68
   9   5  -3  200.72    9.77
   7  -5  -3  466.55   19.43
   7  -5  -3  475.12   19.83
  -7  -5   3  422.68   18.98
  -7  -5   3  428.28   19.66
  -7   5   3  444.87   19.56
   7   5  -3  462.51   19.41
  -7   5   3  469.02   17.76
  -7   5   3  446.76   19.67
  -7   5   3  457.01   19.68
   7   5  -3  445.48   17.91
   5  -5  -3   16.47    2.49
  -5  -5   3   14.72    1.54
  -5  -5   3   16.03    2.49
   5  -5  -3   21.97    2.53
   5  -5  -3   17.21    2.59
  -5  -5   3   12.28    1.96
  -5  -5   3   18.67    2.04
  -5   5   3   12.30    1.97
   5   5  -3   17.08    2.12
  -5   5   3   18.15    2.22
  -5   5   3   12.05    2.10
  -3  -5   3  182.90    7.97
   3  -5  -3  166.59    8.17
   3  -5  -3  195.95    8.82
  -3  -5   3  175.13    8.64
   3  -5  -3  189.10    8.80
  -3   5   3  178.06    7.21
  -3   5   3  184.44    8.21
  -3   5   3  176.55    8.52
  -3   5   3  174.37    8.34
   3   5  -3  160.05    7.83
  -1  -5   3  337.54   13.70
   1  -5  -3  307.32   14.24
  -1  -5   3  332.33   13.24
  -1  -5   3  347.17   13.78
   1  -5  -3  320.28   13.34
   1  -5  -3  299.82   14.08
  -1   5   3  324.37   13.75
  -1   5   3  335.78   13.50
   1   5  -3  312.38   12.79
   1   5  -3  343.22   13.14
   1  -5   3  910.05   35.30
   1  -5   3  963.64   35.48
  -1  -5  -3  889.58   36.79
   1  -5   3  907.13   36.42
  -1  -5  -3  889.93   36.77
  -1  -5  -3  973.95   36.28
   1   5   3  910.37   36.04
  -1   5  -3  842.50   36.51
   1   5   3  912.13   35.62
  -3  -5  -3    5.45    1.37
   3  -5   3    5.08    1.64
  -3  -5  -3    7.70    1.85
  -3  -5  -3    7.01    1.82
   3   5   3    7.43    0.83
  -3   5  -3    6.47    1.75
  -5  -5  -3  209.76   10.10
   5  -5   3  208.89   10.13
  -5  -5  -3  212.83   10.40
   5  -5   3  203.75    9.24
  -5   5  -3  212.43   10.14
   5   5   3  222.52    9.04
   5   5   3  218.21    8.92
  -5   5  -3  208.45   10.24
   5   5   3  210.85    8.91
  -7  -5  -3  157.16    8.73
   7  -5   3  173.85    8.92
   7  -5   3  161.67    8.01
  -7  -5  -3  160.03    8.98
   7   5   3  170.95    7.60
  -7   5  -3  168.46    8.62
  -7   5  -3  162.73    9.02
   7   5   3  177.02    7.02
   7   5   3  167.21    7.63
   7   5   3  167.16    6.90
  -9  -5  -3  223.55   11.81
   9  -5   3  231.29   10.86
  -9  -5  -3  227.43   11.55
  -9   5  -3  217.83   11.21
   9   5   3  227.64   10.56
  -9   5  -3  217.82   11.55
 -11  -5  -3    5.28    2.83
  11  -5   3   14.49    3.03
 -11   5  -3    4.53    2.43
 -11   5  -3    7.53    3.05
 -11   5  -3    8.58    2.52
 -13  -5  -3   73.22    7.50
  13  -5   3   82.50    6.40
 -13   5  -3   67.28    6.14
 -13   5  -3   74.48    7.00
  13   5   3   73.80    8.01
  15  -5   3  115.44    9.82
 -15  -5  -3  129.56   10.46
 -15   5  -3  123.43    8.23
 -15   5  -3  117.61   10.56
 -15   5  -3  115.14    9.89
  15   5   3  122.91   10.58
 -15   5  -3  111.47    9.51
  16  -6  -3   -4.79    4.68
  16  -6  -3   -0.69    4.81
 -16  -6   3   -3.52    4.54
 -16   6   3   -1.55    5.02
 -16   6   3    1.73    4.60
  16   6  -3   -5.28    4.45
 -16   6   3   -2.39    4.32
  14  -6  -3  132.88   10.42
  14  -6  -3  134.23   10.51
 -14  -6   3  134.83   10.22
 -14   6   3  145.45    9.98
 -14   6   3  134.08   10.33
 -14   6   3  130.90   10.43
  14   6  -3  128.99   10.07
 -14   6   3  151.66    7.53
  12  -6  -3   95.31    7.01
  12  -6  -3   85.03    6.76
  12   6  -3   87.58    6.85
 -12   6   3   91.86    7.81
 -12   6   3   91.66    6.64
 -12   6   3   92.04    5.04
  10  -6  -3   18.42    3.34
 -10  -6   3    9.94    2.67
 -10  -6   3   18.54    3.36
  10  -6  -3   14.22    3.14
 -10   6   3   18.02    3.38
 -10   6   3   15.76    3.28
  10   6  -3   23.11    3.58
 -10   6   3   17.31    3.34
 -10   6   3   18.05    1.81
   8  -6  -3   14.99    2.85
   8  -6  -3   15.63    2.87
  -8  -6   3   15.90    2.99
  -8   6   3   13.51    1.34
  -8   6   3   14.09    2.68
  -8   6   3    9.96    2.33
  -8   6   3   17.28    2.89
   8   6  -3    9.66    2.44
   6  -6  -3   53.56    4.45
  -6  -6   3   48.86    4.12
   6  -6  -3   50.53    4.47
   6  -6  -3   57.40    4.07
  -6   6   3   51.53    4.31
  -6   6   3   51.75    4.34
  -6   6   3   49.74    4.10
   6   6  -3   58.64    4.01
   4  -6  -3  135.57    7.72
  -4  -6   3  136.39    7.50
   4  -6  -3  144.02    7.10
  -4  -6   3  147.49    6.59
   4  -6  -3  131.90    7.54
   4   6  -3  164.57    6.96
  -4   6   3  141.69    5.95
  -4   6   3  144.59    7.22
  -4   6   3  139.44    7.39
   2  -6  -3   66.44    4.05
  -2  -6   3   69.91    4.05
   2  -6  -3   61.93    3.75
   2  -6  -3   68.91    4.61
  -2  -6   3   75.48    3.94
   2  -6  -3   56.95    4.40
   2   6  -3   66.12    3.36
   2   6  -3   75.75    3.50
  -2   6   3   67.18    4.17
  -2   6   3   68.27    3.88
   0  -6   3   21.76    1.35
   0  -6  -3   20.81    2.61
   0  -6   3   22.18    2.45
   0  -6  -3   22.82    2.66
   0  -6  -3   21.02    2.23
   0  -6   3   20.01    2.57
   0   6  -3   21.58    2.36
   0   6   3   20.16    1.71
   0   6   3   23.52    2.33
   2  -6   3  188.16    8.23
  -2  -6  -3  203.94    9.72
   2  -6   3  193.14    9.17
  -2  -6  -3  218.11    9.27
  -2  -6  -3  205.66    9.77
   2  -6   3  204.38    9.65
  -2   6  -3  182.17    9.34
   2   6   3  198.18    8.11
  -4  -6  -3  473.91   19.81
  -4  -6  -3  425.35   19.86
   4  -6   3  506.31   18.61
   4  -6   3  436.16   19.64
  -4  -6  -3  461.39   20.13
   4   6   3  488.48   18.32
  -4   6  -3  448.65   19.97
   4   6   3  476.21   18.33
  -4   6  -3  447.71   19.97
   6  -6   3   17.11    2.81
   6  -6   3   12.57    1.99
  -6  -6  -3   17.64    3.09
  -6  -6  -3   15.65    2.67
  -6  -6  -3   14.45    2.52
  -6   6  -3   14.68    2.62
  -6   6  -3   17.71    2.86
   6   6   3   13.49    1.55
   6   6   3   14.38    1.68
  -8  -6  -3   62.04    5.22
   8  -6   3   63.78    4.44
  -8  -6  -3   67.82    5.46
  -8   6  -3   52.29    4.98
   8   6   3   61.12    4.02
   8   6   3   62.34    3.81
   8   6   3   66.91    3.16
  -8   6  -3   56.83    5.24
   8   6   3   68.24    3.37
 -10  -6  -3   41.77    4.50
 -10  -6  -3   45.00    5.25
  10  -6   3   41.52    4.39
  10   6   3   56.10    6.00
 -10   6  -3   46.88    4.82
 -10   6  -3   44.20    5.10
  12  -6   3   41.75    4.82
 -12  -6  -3   36.73    5.97
  12   6   3   42.72    6.24
 -12   6  -3   45.49    6.35
 -12   6  -3   41.32    4.94
  14  -6   3   26.44    7.09
 -14  -6  -3   22.82    5.24
 -14   6  -3   30.93    4.50
 -14   6  -3   21.81    5.11
 -14   6  -3   19.90    5.72
 -14   6  -3   26.16    5.12
  14   6   3   26.97    5.61
  15  -7  -3   47.19    7.09
 -15  -7   3   51.94    7.40
  15  -7  -3   56.78    7.69
 -15   7   3   48.83    7.29
  15   7  -3   37.96    6.87
 -15   7   3   47.13    6.83
 -15   7   3   48.69    6.75
  13  -7  -3    5.48    4.38
 -13  -7   3   -1.88    3.66
  13  -7  -3   -1.29    3.16
 -13   7   3   -1.25    3.68
  13   7  -3   -2.67    3.82
 -13   7   3    2.40    3.68
 -13   7   3    0.52    1.90
 -13   7   3    1.38    3.96
  11  -7  -3   12.07    3.06
  11  -7  -3   14.37    3.48
 -11  -7   3   16.46    5.27
  11   7  -3   15.47    3.30
 -11   7   3   16.79    4.29
 -11   7   3   15.88    4.17
 -11   7   3   21.09    2.22
 -11   7   3   10.76    3.19
  -9  -7   3  173.62    8.29
   9  -7  -3  166.19    9.87
  -9  -7   3  170.47    9.83
   9  -7  -3  176.89    9.34
  -9   7   3  176.21    9.85
  -9   7   3  166.09    9.56
  -9   7   3  187.04    7.40
  -9   7   3  179.04    9.64
   9   7  -3  172.27    9.30
  -9   7   3  175.99    7.53
  -7  -7   3   99.71    5.35
  -7  -7   3  101.89    6.66
   7  -7  -3   88.47    6.44
   7  -7  -3  101.25    5.96
  -7  -7   3  110.22    5.21
   7  -7  -3   95.26    6.44
  -7   7   3   95.45    6.38
  -7   7   3  103.80    4.25
   7   7  -3   98.10    5.93
  -7   7   3   92.57    6.24
  -7   7   3   95.51    6.32
  -7   7   3   91.49    4.24
   5  -7  -3   31.67    3.31
   5  -7  -3   29.81    3.77
   5  -7  -3   30.70    3.64
  -5  -7   3   37.45    3.06
  -5  -7   3   32.62    3.77
  -5  -7   3   28.14    2.77
   5   7  -3   36.48    3.08
  -5   7   3   36.80    2.16
  -5   7   3   35.69    3.70
  -5   7   3   33.88    3.35
   3  -7  -3   96.82    5.27
   3  -7  -3   87.51    5.97
  -3  -7   3   94.42    5.20
   3  -7  -3   90.97    5.91
  -3   7   3   96.59    5.27
   3   7  -3   94.21    4.73
  -3   7   3  106.63    5.78
  -1  -7   3  245.95    9.89
  -1  -7   3  233.92   10.43
  -1  -7   3  249.76   11.03
   1  -7  -3  224.14   10.40
   1  -7  -3  251.36   11.46
   1  -7  -3  275.82   11.85
   1   7  -3  235.62   10.85
   1   7  -3  238.35    9.61
  -1   7   3  232.25   10.34
  -1   7   3  225.49   10.92
  -1  -7  -3  166.16    7.95
  -1  -7  -3  163.52    8.58
   1  -7   3  167.17    6.99
  -1  -7  -3  163.45    8.51
   1  -7   3  170.49    7.99
   1  -7   3  177.38    8.51
   1   7   3  158.72    7.08
   1   7   3  157.40    7.89
  -1   7  -3  171.37    8.27
   3  -7   3   18.82    2.88
  -3  -7  -3   17.52    2.73
  -3  -7  -3   20.35    2.76
   3  -7   3   21.93    2.23
  -3  -7  -3   17.92    2.81
   3  -7   3   25.37    2.96
  -3   7  -3   22.39    2.96
   3   7   3   23.60    1.34
  -5  -7  -3   47.61    4.42
  -5  -7  -3   49.38    4.34
  -5  -7  -3   48.96    4.24
   5  -7   3   50.10    4.41
   5   7   3   50.81    2.53
  -5   7  -3   49.90    4.50
  -5   7  -3   46.56    4.29
   5   7   3   51.37    2.49
  -7  -7  -3  177.71    9.92
  -7  -7  -3  197.93   10.45
  -7  -7  -3  175.27    9.84
   7   7   3  199.14    8.25
  -7   7  -3  188.92   10.16
  -7   7  -3  191.55   10.29
   7   7   3  189.21    8.19
  -9  -7  -3  109.19    7.66
  -9  -7  -3  100.93    7.27
   9  -7   3   98.21    7.80
  -9   7  -3  117.46    7.50
   9   7   3  113.30    4.95
   9   7   3  113.38    6.08
  -9   7  -3  104.17    7.18
 -11  -7  -3    0.41    3.50
 -11   7  -3    3.06    2.51
 -11   7  -3    3.20    4.58
 -13  -7  -3   21.83    5.50
  13  -7   3   25.13    4.31
 -13   7  -3   23.06    4.90
 -13   7  -3   16.32    4.82
 -13   7  -3   19.02    4.45
  13   7   3   25.13    5.58
  15  -7   3   60.32    7.14
 -15  -7  -3   70.57    8.86
 -15   7  -3   83.60    9.23
  15   7   3   53.14    7.57
 -15   7  -3   63.34    8.53
  14  -8  -3    5.77    4.64
 -14  -8   3   -3.39    3.99
  14  -8  -3    2.87    4.93
 -14   8   3    2.05    4.21
 -14   8   3    2.39    4.27
  14   8  -3   -1.52    4.47
 -14   8   3    2.68    4.59
 -12  -8   3  106.91    9.28
  12  -8  -3  127.36    8.15
  12  -8  -3  105.24    9.13
 -12   8   3  107.61    9.10
 -12   8   3  115.35    9.31
 -12   8   3  129.80    9.38
  10  -8  -3   32.55    4.14
  10  -8  -3   28.95    4.55
 -10  -8   3   29.35    4.99
 -10   8   3   25.08    4.51
 -10   8   3   18.36    4.02
 -10   8   3   29.60    2.23
  10   8  -3   20.83    3.70
 -10   8   3   25.99    4.62
   8  -8  -3   49.07    5.11
  -8  -8   3   58.46    4.23
   8  -8  -3   53.40    5.11
  -8  -8   3   56.77    5.27
   8  -8  -3   52.92    4.68
  -8   8   3   53.42    5.13
  -8   8   3   54.20    4.87
   8   8  -3   53.03    4.78
  -8   8   3   55.03    4.91
  -8   8   3   54.01    3.02
  -8   8   3   59.63    2.82
  -6  -8   3   60.27    5.03
   6  -8  -3   54.00    4.90
   6  -8  -3   49.76    4.92
   6  -8  -3   56.52    4.33
   6   8  -3   47.61    4.06
  -6   8   3   47.55    4.34
  -6   8   3   57.20    3.54
  -6   8   3   53.98    4.68
  -4  -8   3   39.66    4.22
  -4  -8   3   36.14    2.94
   4  -8  -3   37.31    4.28
   4  -8  -3   32.11    3.30
  -4  -8   3   40.06    3.33
   4  -8  -3   35.62    3.98
  -4   8   3   34.42    3.41
   4   8  -3   33.96    2.90
   4   8  -3   37.45    4.04
  -4   8   3   37.49    3.79
  -2  -8   3   10.80    1.61
   2  -8  -3    7.30    2.31
  -2  -8   3   10.55    2.21
   2  -8  -3   10.01    2.73
  -2   8   3    7.99    1.60
  -2   8   3   10.13    2.32
   2   8  -3    8.18    1.07
   0  -8  -3   15.74    3.00
   0  -8  -3   14.49    2.54
   0  -8   3   15.74    2.26
   0  -8   3   13.87    2.37
   0  -8  -3   16.39    2.36
   0   8  -3   14.61    2.23
   0   8   3   11.72    2.08
   0   8   3   14.19    1.66
   2  -8   3    2.21    2.15
  -2  -8  -3    3.25    1.77
  -2  -8  -3    4.02    1.91
  -2  -8  -3    0.69    1.91
   2  -8   3    2.78    1.83
   2   8   3    3.38    0.79
  -2   8  -3    0.86    1.62
   4  -8   3   36.98    3.08
  -4  -8  -3   33.53    3.66
  -4  -8  -3   32.55    3.89
  -4  -8  -3   37.14    3.99
   4  -8   3   33.67    4.12
  -4   8  -3   34.41    3.80
  -4   8  -3   29.68    4.16
  -6  -8  -3  139.89    8.15
  -6  -8  -3  129.97    7.67
  -6  -8  -3  104.67    7.32
   6  -8   3  111.31    7.78
   6  -8   3  135.06    7.39
  -6   8  -3  123.85    7.91
   6   8   3  132.70    5.49
  -6   8  -3  130.54    7.81
   8  -8   3    1.68    1.87
  -8  -8  -3   -0.94    2.34
  -8  -8  -3    9.74    2.65
  -8  -8  -3   -1.35    2.18
   8  -8   3    3.12    2.56
  -8   8  -3    1.47    2.20
   8   8   3    3.20    1.53
  -8   8  -3    3.06    2.36
 -10  -8  -3   77.47    7.28
  10  -8   3   58.64    6.81
  10  -8   3   69.14    5.34
 -10  -8  -3   61.70    7.49
 -10   8  -3   69.09    7.44
 -10   8  -3   62.45    6.92
  10   8   3   70.50    3.55
  12  -8   3    7.30    4.63
  12  -8   3    8.40    3.36
 -12  -8  -3   16.27    4.52
 -12   8  -3   18.40    3.63
 -12   8  -3   14.51    5.12
  12   8   3   12.91    4.41
 -12   8  -3   14.52    4.84
  14  -8   3   49.37    6.10
  14  -8   3   24.84    6.34
 -14  -8  -3   37.61    6.51
  14   8   3   32.77    6.50
 -14   8  -3   31.84    5.87
 -14   8  -3   26.29    6.45
 -14   8  -3   31.82    6.01
  13  -9  -3   22.18    5.46
  13  -9  -3   23.34    6.05
 -13  -9   3   20.37    5.69
 -13   9   3   18.15    5.63
 -13   9   3   16.48    5.27
 -13   9   3   25.62    5.61
  13   9  -3   11.34    4.86
  11  -9  -3    3.29    3.73
  11  -9  -3   -1.06    2.96
  11  -9  -3    4.01    3.83
 -11  -9   3    1.96    3.86
 -11   9   3    4.72    3.71
 -11   9   3   -0.36    3.27
  11   9  -3    0.63    2.81
 -11   9   3   -3.89    3.78
  -9  -9   3   34.04    5.37
   9  -9  -3   26.75    4.08
   9  -9  -3   33.01    5.57
  -9   9   3   36.59    4.96
  -9   9   3   25.51    4.76
   9   9  -3   28.42    4.03
  -9   9   3   35.11    5.51
  -9   9   3   35.32    2.20
   7  -9  -3   71.03    5.12
  -7  -9   3   69.44    4.72
   7  -9  -3   60.07    5.56
   7  -9  -3   63.99    5.80
  -7  -9   3   66.98    5.79
  -7   9   3   61.04    5.05
  -7   9   3   56.57    5.44
   7   9  -3   58.13    4.77
  -7   9   3   59.47    5.63
   5  -9  -3    8.18    2.71
   5  -9  -3    7.59    2.64
  -5  -9   3   10.23    2.14
   5  -9  -3   10.95    2.29
  -5  -9   3    8.13    2.90
   5   9  -3    8.57    2.03
   5   9  -3   10.81    2.59
  -5   9   3   10.97    2.24
  -5   9   3    8.87    2.62
   3  -9  -3   70.05    5.68
   3  -9  -3   70.66    5.38
  -3  -9   3   58.14    4.66
   3   9  -3   56.27    4.28
  -3   9   3   66.98    4.98
  -3   9   3   63.99    4.36
   1  -9  -3   72.15    5.55
  -1  -9   3   83.71    5.49
   1  -9  -3   81.47    5.89
  -1  -9   3   83.53    4.32
  -1   9   3   82.93    5.57
   1   9  -3   74.29    4.99
  -1   9   3   78.51    4.51
  -1  -9  -3   16.27    2.68
   1  -9   3   11.12    2.73
   1  -9   3   12.49    1.98
  -1  -9  -3   15.34    3.09
  -1  -9  -3   16.24    2.91
   1   9   3    8.89    2.31
  -1   9  -3   12.59    2.40
   1   9   3   15.18    1.77
  -3  -9  -3   -0.68    2.07
  -3  -9  -3   -1.29    1.80
   3  -9   3    3.35    1.67
  -3  -9  -3    0.90    1.79
   3  -9   3   -1.20    1.98
  -3   9  -3   -0.94    1.84
  -3   9  -3    4.09    2.21
   3   9   3    1.70    0.77
   5  -9   3   23.90    3.78
   5  -9   3   27.94    3.31
  -5  -9  -3   25.69    3.68
  -5  -9  -3   32.66    4.26
  -5  -9  -3   31.30    3.92
  -5   9  -3   34.75    4.07
  -5   9  -3   31.81    4.22
  -7  -9  -3   65.25    5.51
  -7  -9  -3   59.33    5.45
  -7  -9  -3   57.80    5.34
   7  -9   3   52.86    4.73
   7  -9   3   54.16    5.71
   7  -9   3   59.86    4.68
  -7   9  -3   55.09    5.39
  -7   9  -3   60.95    5.85
   7   9   3   54.66    2.99
   9  -9   3   43.20    4.25
  -9  -9  -3   40.23    5.91
  -9  -9  -3   50.66    7.66
   9  -9   3   41.28    6.08
  -9  -9  -3   43.26    5.55
  -9   9  -3   43.55    5.82
   9   9   3   60.35    3.67
   9   9   3   54.10    4.03
  -9   9  -3   44.88    5.83
 -11  -9  -3   10.02    4.37
  11  -9   3   -0.22    3.89
  11  -9   3    7.21    3.15
 -11   9  -3   12.07    4.62
  11   9   3    6.23    4.42
 -11   9  -3    9.81    4.57
  13  -9   3   12.13    5.17
 -13  -9  -3   16.63    4.66
  13  -9   3    9.73    3.86
 -13   9  -3   13.02    5.01
 -13   9  -3   13.42    5.77
 -13   9  -3   11.81    5.42
  13   9   3   15.64    5.69
  12 -10  -3    4.56    4.71
  12 -10  -3    5.18    3.93
  12 -10  -3    1.29    4.46
 -12 -10   3    2.66    4.31
 -12  10   3    5.29    4.25
 -12  10   3    2.11    4.17
 -12  10   3   -8.49    4.24
  12  10  -3    2.14    4.69
  10 -10  -3    3.47    4.02
  10 -10  -3    1.20    3.15
 -10 -10   3    2.92    3.42
  10 -10  -3    0.72    3.85
 -10  10   3    0.72    3.89
 -10  10   3    0.47    3.26
  10  10  -3   -2.22    2.77
 -10  10   3    1.24    3.86
  -8 -10   3    0.36    2.40
  -8 -10   3   -5.02    3.16
   8 -10  -3    0.75    2.73
   8 -10  -3   -3.63    2.37
   8 -10  -3    3.01    3.73
   8  10  -3   -1.01    2.28
  -8  10   3    1.57    1.44
  -8  10   3   -0.62    3.50
  -8  10   3    2.47    3.80
  -8  10   3    3.28    3.31
   6 -10  -3    3.81    2.41
   6 -10  -3    6.46    4.97
  -6 -10   3    4.00    2.12
   6 -10  -3    2.58    2.14
  -6 -10   3    2.60    3.05
  -6  10   3   -0.21    1.94
   6  10  -3    3.76    2.02
  -6  10   3    3.02    2.19
   4 -10  -3   -1.45    2.20
   4 -10  -3    3.98    2.31
  -4 -10   3    0.55    2.04
  -4  10   3    0.95    1.69
   4  10  -3    1.37    1.52
  -4  10   3    1.06    2.19
  -2 -10   3    1.83    2.20
   2 -10  -3    3.25    2.35
  -2 -10   3    3.39    1.81
   2 -10  -3   -0.23    2.11
  -2  10   3    0.51    2.03
  -2  10   3    0.45    1.59
   2  10  -3    2.32    1.87
   0 -10   3   14.59    2.93
   0 -10  -3   20.69    2.89
   0 -10   3   19.23    2.24
   0 -10  -3   12.31    3.11
   0 -10  -3   15.09    3.24
   0  10  -3   16.64    2.67
   0  10   3   20.09    3.11
   0  10   3   18.43    2.12
   2 -10   3    2.66    2.65
  -2 -10  -3    7.40    2.64
  -2 -10  -3    8.82    2.31
   2 -10   3    8.37    1.99
  -2 -10  -3    4.08    2.27
  -2  10  -3    5.46    2.04
   2  10   3    7.00    1.32
   2  10   3    8.41    1.36
   2  10   3    2.78    2.24
  -4 -10  -3   14.97    3.03
   4 -10   3    8.28    2.69
  -4 -10  -3   13.63    3.26
  -4 -10  -3   13.98    3.08
   4 -10   3   13.10    2.51
  -4  10  -3   13.79    3.12
  -4  10  -3   12.83    2.69
  -6 -10  -3    3.01    2.52
  -6 -10  -3    7.65    2.83
   6 -10   3    2.84    3.21
  -6 -10  -3    7.97    2.84
   6 -10   3    5.01    2.41
  -6  10  -3    4.73    3.57
  -6  10  -3    1.59    3.74
   8 -10   3   -1.16    3.35
  -8 -10  -3   -1.16    3.74
  -8 -10  -3    2.71    4.50
   8 -10   3   -0.13    2.62
  -8 -10  -3    2.05    2.80
  -8  10  -3    3.40    3.52
  -8  10  -3    4.70    3.41
  10 -10   3    0.99    2.90
  10 -10   3    0.29    4.08
 -10 -10  -3   -1.06    3.85
 -10 -10  -3    0.99    4.15
  10  10   3   -1.76    3.95
  10  10   3   -4.90    2.23
 -10  10  -3    5.92    4.36
 -10  10  -3    0.85    3.77
  12 -10   3   -4.13    3.52
  12 -10   3   -5.09    4.29
 -12 -10  -3    0.66    4.14
  12  10   3    1.18    4.54
 -12  10  -3    2.54    4.53
 -12  10  -3   -2.91    4.85
 -12  10  -3   -1.77    4.63
 -11 -11   3    5.69    4.25
  11 -11  -3    9.84    5.04
  11 -11  -3    8.27    5.18
  11 -11  -3   -2.97    3.54
  11  11  -3    6.47    4.56
 -11  11   3    4.59    4.59
 -11  11   3    2.40    3.96
 -11  11   3    8.53    4.82
  -9 -11   3   13.97    5.00
   9 -11  -3    9.55    5.04
   9 -11  -3   11.73    4.71
  -9 -11   3   18.76    3.88
   9 -11  -3   16.26    3.75
  -9  11   3   14.98    4.86
  -9  11   3   15.18    4.76
  -9  11   3   18.93    4.58
   9  11  -3   18.57    3.56
  -7 -11   3   13.22    3.31
   7 -11  -3   12.82    2.90
   7 -11  -3    7.09    3.46
  -7 -11   3   13.75    4.33
   7 -11  -3    6.28    4.28
  -7  11   3    4.61    3.11
  -7  11   3   12.36    4.28
   7  11  -3    9.41    2.75
  -5 -11   3    5.12    2.43
   5 -11  -3    0.12    2.53
   5 -11  -3    7.71    3.86
  -5  11   3    0.81    2.42
   5  11  -3    2.13    2.06
  -5  11   3    3.33    3.89
  -3 -11   3    5.05    2.67
   3 -11  -3    5.28    2.32
   3  11  -3    1.19    1.75
  -3  11   3    0.41    2.12
  -3  11   3    2.94    1.84
   1 -11  -3   24.86    3.72
  -1 -11   3   29.31    3.03
   1 -11  -3   19.70    4.08
  -1 -11   3   23.65    3.92
  -1  11   3   23.66    3.83
   1  11  -3   24.70    3.24
  -1  11   3   23.59    2.87
  -1 -11  -3   -0.71    2.34
  -1 -11  -3    0.62    2.22
  -1 -11  -3    1.41    2.65
   1 -11   3    3.09    2.47
   1 -11   3    4.56    1.93
  -1  11  -3    0.03    1.88
   1  11   3    1.60    1.81
   1  11   3    1.14    1.29
   1  11   3    1.40    2.22
  -3 -11  -3    2.11    2.50
  -3 -11  -3   -2.02    2.43
   3 -11   3   -5.11    2.13
  -3 -11  -3   -3.94    2.36
   3 -11   3    3.37    2.14
   3  11   3   -0.84    1.02
   3  11   3   -0.03    2.25
  -3  11  -3   -1.73    1.96
  -3  11  -3   -2.44    2.91
   3  11   3    0.39    1.08
   5 -11   3   17.54    4.46
  -5 -11  -3   19.24    3.82
  -5 -11  -3   27.78    4.00
  -5 -11  -3   23.27    3.75
   5 -11   3   18.67    3.08
  -5  11  -3   24.67    5.18
  -5  11  -3   20.62    4.33
  -7 -11  -3    2.26    5.28
  -7 -11  -3    8.31    4.12
   7 -11   3    5.77    3.87
  -7 -11  -3   10.72    4.40
   7 -11   3    4.98    2.96
  -7  11  -3    3.96    3.65
  -7  11  -3    9.81    4.11
   9 -11   3   -1.23    4.32
  -9 -11  -3    2.19    4.44
  -9 -11  -3    7.09    4.10
   9 -11   3   -0.61    3.24
  -9 -11  -3   -3.66    4.13
  -9  11  -3   -6.69    3.83
  -9  11  -3   -0.99    3.31
 -11 -11  -3    1.78    4.62
  11 -11   3    6.54    5.11
  11 -11   3    6.16    4.12
 -11  11  -3   -2.49    4.76
 -11  11  -3    2.71    4.49
  11  11   3    0.94    4.62
  10 -12  -3   31.41    6.19
  10 -12  -3   47.79    5.32
 -10 -12   3   31.24    6.08
  10 -12  -3   36.83    7.28
 -10  12   3   22.72    5.19
  10  12  -3   35.15    4.98
 -10  12   3   34.70    6.74
 -10  12   3   33.55    6.50
  -8 -12   3    1.71    3.58
   8 -12  -3   -0.98    4.31
  -8 -12   3   -2.13    3.89
   8 -12  -3    1.47    4.48
  -8  12   3   -2.80    3.18
  -8  12   3    1.14    3.63
  -8  12   3    2.62    4.33
   8  12  -3   -1.36    2.98
   6 -12  -3   35.49    6.09
  -6 -12   3   33.19    4.46
   6 -12  -3   33.46    5.60
   6  12  -3   40.46    3.86
  -6  12   3   27.95    4.47
  -6  12   3   30.59    5.80
   4 -12  -3   90.92    8.40
   4 -12  -3   67.65    6.48
  -4 -12   3   71.71    6.83
  -4  12   3   73.34    6.26
  -4  12   3   81.89    7.83
   4  12  -3   68.91    5.31
   2 -12  -3    2.42    2.89
  -2 -12   3    6.52    2.91
  -2 -12   3    8.00    2.62
   2 -12  -3    3.55    3.69
  -2  12   3    6.14    3.03
   2  12  -3    6.80    2.38
  -2  12   3   10.42    2.24
   0 -12   3   30.09    3.24
   0 -12  -3   23.85    5.14
   0 -12  -3   27.59    4.17
   0 -12   3   32.67    4.64
   0  12  -3   31.28    4.52
   0  12   3   36.32    4.48
   0  12   3   29.50    3.23
  -2 -12  -3   10.66    4.49
  -2 -12  -3    1.34    2.57
   2 -12   3    1.43    2.39
  -2 -12  -3    2.48    2.64
   2 -12   3    0.86    2.79
   2  12   3    6.08    3.01
   2  12   3    7.45    1.76
   2  12   3    3.45    1.51
  -2  12  -3    4.88    3.16
  -2  12  -3    5.37    3.65
  -4 -12  -3    9.54    3.38
   4 -12   3   10.95    4.41
   4 -12   3    8.51    2.84
  -4 -12  -3    8.37    3.07
  -4 -12  -3    5.38    4.46
  -4  12  -3    9.87    4.27
  -4  12  -3    3.81    3.28
   4  12   3   10.78    3.27
  -6 -12  -3   48.87    6.66
  -6 -12  -3   46.63    6.91
   6 -12   3   45.19    5.45
   6 -12   3   42.89    6.59
  -6 -12  -3   35.44    6.04
  -6  12  -3   38.71    6.42
  -6  12  -3   39.44    5.83
   8 -12   3    0.59    3.62
  -8 -12  -3   -0.23    4.30
   8 -12   3    2.57    4.77
  -8 -12  -3    3.05    4.26
  -8 -12  -3   -1.80    4.54
   8  12   3    1.01    3.30
  -8  12  -3    0.23    4.32
  -8  12  -3    1.91    3.81
  -7 -13   3    3.55    3.87
   7 -13  -3    2.51    4.76
   7 -13  -3    0.91    4.29
   7  13  -3    7.72    3.28
  -7  13   3   -1.07    4.19
  -7  13   3    0.10    4.17
  -7  13   3    4.85    3.95
   5 -13  -3   -1.65    4.05
   5 -13  -3    2.62    4.49
  -5 -13   3    4.36    3.42
   5  13  -3    5.16    3.14
  -5  13   3    0.74    4.04
  -5  13   3    2.06    3.17
   3 -13  -3   -0.69    4.68
  -3 -13   3    0.16    5.00
   3 -13  -3   -0.37    3.75
   3  13  -3   -0.02    2.88
  -3  13   3    1.17    3.68
  -3  13   3    0.96    2.96
  -1 -13   3   47.27    5.89
  -1 -13   3   60.05    4.96
   1 -13  -3   63.04    8.05
   1 -13  -3   55.03    7.66
  -1  13   3   56.15    6.95
  -1  13   3   65.44    4.77
   1  13  -3   52.51    6.19
   1 -13   3   54.94    7.09
   1 -13   3   58.86    5.86
  -1 -13  -3   60.47    7.74
   1  13   3   55.00    6.89
  -1  13  -3   62.28    6.09
   1  13   3   50.54    3.93
   3 -13   3   16.11    5.17
   3 -13   3   18.66    3.51
  -3 -13  -3   15.23    5.31
  -3 -13  -3   11.31    4.61
  -3 -13  -3   14.01    4.21
  -3  13  -3   14.07    4.89
   3  13   3   14.42    1.71
   3  13   3    8.73    3.37
   3  13   3   12.66    2.80
  -3  13  -3   19.32    4.26
   5 -13   3   34.45    6.19
  -5 -13  -3   57.34    7.41
  -5 -13  -3   43.28    6.11
   5 -13   3   44.02    5.49
  -5 -13  -3   35.80    6.14
  -5  13  -3   39.98    5.78
   5  13   3   47.73    5.55
  -5  13  -3   42.44    6.78
  -7 -13  -3   80.32    8.96
  -7 -13  -3   71.30    8.55
   7 -13   3   81.50    7.14
  -7 -13  -3   80.16    9.37
   7 -13   3   68.57    8.73
   7  13   3   67.22    6.98
  -7  13  -3   80.79    8.19
  -7  13  -3   91.50    9.34
   4 -14  -3   79.63    9.57
   4 -14  -3  113.46    9.85
  -4  14   3   96.67    7.80
  -4  14   3   93.61    9.50
   4  14  -3  103.43    7.52
  -2 -14   3   35.15    6.43
   2 -14  -3   45.49    7.56
   2 -14  -3   48.02    6.79
  -2  14   3   46.52    6.87
   2  14  -3   45.73    5.23
  -2  14   3   53.00    5.49
   0 -14  -3    0.22    4.59
   0 -14  -3   12.12    5.31
   0 -14   3    0.68    4.37
   0  14   3   -1.60    4.00
   0  14  -3    1.43    3.33
   0  14   3    1.63    3.47
  -2 -14  -3  114.99   10.59
   2 -14   3  115.06   10.63
  -2 -14  -3  121.83   10.12
  -2  14  -3  120.60    8.99
   2  14   3  114.57    6.05
  -2  14  -3  129.22   10.82
   2  14   3  127.92    9.88
  -4 -14  -3   82.90    9.37
  -4 -14  -3   87.18    8.87
   4 -14   3  102.12    9.72
  -4 -14  -3   77.36    9.10
  -4  14  -3   80.41    9.40
   4  14   3   76.16    6.52
   4  14   3   64.80    7.39
  -4  14  -3   72.74    7.83
  16   0  -4   52.16    5.68
  16   0  -4   42.21    6.71
 -16   0   4   59.18    6.21
 -16   0   4   49.28    6.64
 -16   0   4   50.62    6.61
 -16   0   4   63.32    5.94
 -14   0   4   16.72    3.08
 -14   0   4   16.65    3.20
 -14   0   4   22.54    4.42
  14   0  -4   16.79    4.72
 -14   0   4   12.67    3.83
  14   0  -4   12.96    2.87
 -12   0   4   40.36    3.95
  12   0  -4   30.29    4.32
 -12   0   4   34.94    4.02
 -12   0   4   44.40    4.94
 -12   0   4   33.79    4.20
  12   0  -4   35.01    3.50
 -10   0   4  238.72   11.15
 -10   0   4  233.59   11.81
 -10   0   4  245.67   11.39
 -10   0   4  256.63   11.97
  10   0  -4  249.73   10.72
  10   0  -4  233.35   12.04
  -8   0   4  105.25    5.92
  -8   0   4  114.05    6.27
  -8   0   4  110.04    6.21
  -8   0   4  106.11    5.57
   8   0  -4  106.10    5.16
   8   0  -4  106.22    6.42
  -6   0   4  837.62   33.95
  -6   0   4  855.95   33.36
   6   0  -4  839.23   33.01
  -6   0   4  813.05   33.74
  -6   0   4  848.65   33.94
  -4   0   4  149.66    7.08
  -4   0   4  154.20    7.04
  -4   0   4  143.25    6.88
  -4   0   4  144.91    6.43
   4   0  -4  146.98    7.18
   4   0  -4  149.08    6.34
  -2   0   4    0.10    0.79
  -2   0   4    2.58    0.78
   2   0  -4    0.84    0.89
   2   0  -4    0.96    0.77
   2   0  -4   -0.12    0.59
  -2   0   4    0.00    0.83
   0   0  -4  448.82   17.81
   0   0   4  442.37   18.18
   0   0  -4  454.86   18.09
   0   0  -4  445.46   18.32
   2   0   4   77.98    4.17
   2   0   4   75.99    3.81
  -2   0  -4   79.01    4.05
  -2   0  -4   80.20    4.23
  -4   0  -4  232.72    9.46
   4   0   4  218.89    9.79
  -4   0  -4  239.43   10.28
   4   0   4  243.47   10.33
  -4   0  -4  216.38   10.17
  -6   0  -4   58.32    4.15
   6   0   4   57.12    3.99
  -6   0  -4   56.52    4.04
  -6   0  -4   65.54    3.42
  -6   0  -4   64.55    4.16
  -8   0  -4   40.27    3.67
  -8   0  -4   27.78    3.43
  -8   0  -4   31.26    2.56
   8   0   4   26.95    3.25
  -8   0  -4   37.67    2.92
 -10   0  -4  387.42   16.29
 -10   0  -4  371.20   17.01
 -10   0  -4  378.96   17.44
  10   0   4  374.85   17.15
 -12   0  -4  229.50   11.43
  12   0   4  220.42   11.78
 -12   0  -4  216.43   11.56
 -12   0  -4  203.69   10.46
 -14   0  -4    2.85    2.75
  14   0   4   -3.67    4.02
 -14   0  -4    3.11    3.60
 -14   0  -4    5.45    4.06
 -16   0  -4   35.85    6.62
 -16   0  -4   49.63    5.57
 -16   0  -4   42.13    6.75
  16   0   4   37.48    6.75
  17  -1  -4   97.64   10.12
 -17  -1   4   81.52    7.25
 -17  -1   4  106.76    9.38
 -17  -1   4   80.36    9.31
  17  -1  -4  111.64    7.81
 -17  -1   4  110.13   10.06
 -17   1   4   99.55    7.66
 -17   1   4  111.41    8.38
 -17   1   4   93.98   10.54
 -17   1   4   99.01    9.55
  17   1  -4  102.75    7.00
  17   1  -4  101.57    9.96
 -15  -1   4    8.02    3.18
  15  -1  -4   16.94    3.33
 -15  -1   4    6.25    3.83
 -15  -1   4   12.08    3.24
  15  -1  -4    6.93    4.55
 -15  -1   4   11.89    4.22
  15   1  -4    7.19    2.87
 -15   1   4    9.82    3.77
 -15   1   4    8.20    2.96
  15   1  -4   15.60    4.94
 -15   1   4   10.57    4.04
 -13  -1   4    6.20    2.98
  13  -1  -4   12.54    2.64
 -13  -1   4    9.98    2.65
 -13  -1   4    9.95    2.59
 -13  -1   4   10.96    3.16
  13  -1  -4    5.87    3.43
 -13   1   4    7.55    2.43
  13   1  -4   10.07    3.81
 -13   1   4    8.35    3.20
 -13   1   4   10.54    3.38
 -13   1   4    4.40    2.52
  13   1  -4    7.16    2.18
  11  -1  -4  204.09   10.91
 -11  -1   4  202.38   10.55
 -11  -1   4  203.88   10.69
 -11  -1   4  206.21   10.16
  11  -1  -4  211.31    9.72
 -11  -1   4  194.97    9.93
  11   1  -4  198.63   10.96
 -11   1   4  204.50    9.65
 -11   1   4  216.35   10.84
  11   1  -4  199.39    9.06
 -11   1   4  198.67   10.67
 -11   1   4  203.29   10.18
  -9  -1   4  232.94   10.91
  -9  -1   4  225.38   10.80
   9  -1  -4  235.22   10.54
  -9  -1   4  254.88   11.42
  -9  -1   4  230.54   11.31
   9  -1  -4  232.39   11.55
  -9   1   4  234.29   10.44
  -9   1   4  246.00   11.52
   9   1  -4  237.04   11.65
  -9   1   4  237.68   11.44
  -9   1   4  227.82   11.03
   7  -1  -4   22.57    2.92
  -7  -1   4   23.90    2.76
   7  -1  -4   20.00    2.01
  -7  -1   4   25.40    2.47
  -7  -1   4   23.55    2.85
  -7  -1   4   21.04    2.59
   7   1  -4   21.47    2.87
  -7   1   4   21.04    2.81
  -7   1   4   25.69    2.92
   7   1  -4   21.48    1.51
  -7   1   4   21.77    1.96
  -7   1   4   20.43    2.62
  -5  -1   4  197.28    8.92
   5  -1  -4  185.95    9.06
   5  -1  -4  194.02    8.41
  -5  -1   4  198.28    8.65
  -5  -1   4  185.15    8.89
  -5  -1   4  195.85    8.88
  -5   1   4  194.80    8.93
   5   1  -4  198.99    7.82
  -5   1   4  190.98    8.99
  -5   1   4  186.26    8.83
   5   1  -4  201.59    9.21
   3  -1  -4   96.79    5.21
  -3  -1   4   99.82    5.08
  -3  -1   4   99.74    5.09
   3  -1  -4   96.74    4.51
  -3  -1   4  101.43    4.38
   3  -1  -4  101.89    4.77
  -3  -1   4   96.88    4.92
   3  -1  -4   98.47    5.10
  -3   1   4  101.48    4.86
  -3   1   4  100.42    5.08
  -3   1   4   96.60    5.00
   3   1  -4  107.56    5.25
  -1  -1   4  387.02   15.70
   1  -1  -4  374.24   15.66
   1  -1  -4  381.33   15.60
   1  -1  -4  379.04   15.78
  -1  -1   4  392.36   15.72
   1   1  -4  386.40   15.28
   1   1  -4  380.81   15.65
  -1   1   4  380.43   15.21
  -1   1   4  344.38   15.53
  -1   1   4  384.09   15.60
  -1  -1  -4   75.02    4.23
  -1  -1  -4   80.22    3.37
  -1  -1  -4   78.90    4.18
   1  -1   4   77.20    4.03
   1  -1   4   79.49    4.23
  -1   1  -4   80.72    3.80
  -1   1  -4   82.42    4.35
   1   1   4   77.72    3.88
   3  -1   4  124.16    5.67
  -3  -1  -4  126.43    5.87
  -3  -1  -4  128.05    6.11
  -3  -1  -4  113.46    5.99
   3  -1   4  118.29    6.06
  -3   1  -4  127.12    5.79
  -3   1  -4  123.70    6.13
   3   1   4  127.44    5.46
  -3   1  -4  115.05    5.76
   3   1   4  125.19    5.91
  -5  -1  -4  268.17   11.08
  -5  -1  -4  246.41   11.36
  -5  -1  -4  263.10   11.54
  -5  -1  -4  241.62   10.26
   5  -1   4  242.92   11.30
  -5  -1  -4  250.38   10.20
   5   1   4  258.32   10.22
   5   1   4  247.76   10.23
  -5   1  -4  252.75   11.36
   5   1   4  254.27   11.12
  -5   1  -4  243.61   10.63
  -7  -1  -4  149.21    7.38
   7  -1   4  141.04    7.52
  -7  -1  -4  150.21    7.74
  -7  -1  -4  149.26    5.88
  -7  -1  -4  130.10    7.53
  -7  -1  -4  142.72    6.56
  -7   1  -4  141.29    7.58
   7   1   4  137.98    7.40
  -7   1  -4  147.50    6.97
  -7   1  -4  165.45    7.98
   9  -1   4   11.94    2.41
  -9  -1  -4   24.05    2.50
  -9  -1  -4   14.82    2.74
  -9  -1  -4   25.78    3.10
  -9   1  -4   17.30    2.38
  -9   1  -4   15.74    2.86
   9   1   4   19.94    2.98
  -9   1  -4   16.83    2.93
 -11  -1  -4   37.12    4.33
 -11  -1  -4   42.76    4.73
 -11  -1  -4   39.63    3.73
  11  -1   4   35.30    4.35
  11   1   4   38.30    4.23
 -11   1  -4   38.06    4.36
 -11   1  -4   35.78    4.11
 -11   1  -4   35.77    4.04
 -11   1  -4   38.66    3.04
 -13  -1  -4   26.94    4.37
 -13  -1  -4   29.58    5.25
 -13  -1  -4   32.68    5.49
  13   1   4   26.71    5.25
 -13   1  -4   24.99    4.87
 -13   1  -4   25.81    2.66
 -13   1  -4   26.00    3.70
 -13   1  -4   28.01    4.42
 -15  -1  -4   89.86    9.10
  15  -1   4   90.45    9.06
 -15  -1  -4   97.64    7.15
 -15  -1  -4  104.42    9.14
  15   1   4   87.61    8.98
 -15   1  -4   96.80    8.92
 -15   1  -4   92.80    8.86
 -15   1  -4  103.97    7.62
 -16  -2   4   31.07    5.90
 -16  -2   4   34.45    5.97
  16  -2  -4   37.01    6.78
 -16  -2   4   31.53    5.70
  16  -2  -4   37.03    4.76
 -16  -2   4   32.92    4.49
 -16   2   4   30.21    4.60
 -16   2   4   28.63    6.13
  16   2  -4   37.07    3.73
  16   2  -4   31.85    6.51
 -16   2   4   32.70    4.25
 -16   2   4   35.32    6.11
  14  -2  -4   87.05    8.26
 -14  -2   4   79.52    7.61
  14  -2  -4   85.74    6.33
 -14  -2   4   97.20    7.45
 -14  -2   4   91.51    6.66
 -14  -2   4   76.76    5.81
 -14   2   4   81.67    7.65
 -14   2   4   82.24    7.08
 -14   2   4   81.81    5.88
  14   2  -4   83.69    5.11
  14   2  -4   89.60    8.36
 -14   2   4   78.95    6.32
 -12  -2   4  124.87    7.61
  12  -2  -4  118.10    7.83
 -12  -2   4  121.67    7.39
  12  -2  -4  128.19    7.07
 -12  -2   4  113.65    7.52
 -12  -2   4  123.91    7.01
  12   2  -4  121.17    5.83
 -12   2   4  116.15    7.80
 -12   2   4  115.32    6.44
 -12   2   4  118.68    7.85
 -12   2   4  121.97    7.29
  12   2  -4  112.07    7.88
  10  -2  -4    3.98    2.30
  10  -2  -4    4.41    1.62
 -10  -2   4    1.62    2.20
 -10  -2   4    1.43    1.82
 -10  -2   4    1.59    1.80
 -10  -2   4    3.82    1.97
 -10   2   4    3.07    2.08
 -10   2   4    1.55    1.40
  10   2  -4    2.80    2.11
  10   2  -4    3.85    0.98
 -10   2   4    0.46    1.74
 -10   2   4    1.13    2.04
  -8  -2   4   82.78    5.14
   8  -2  -4   89.06    5.81
  -8  -2   4   83.90    5.33
   8  -2  -4   83.49    5.00
  -8  -2   4   86.82    5.23
  -8  -2   4   93.54    5.48
  -8   2   4   91.65    5.49
   8   2  -4   93.31    5.78
   8   2  -4   85.68    3.74
  -8   2   4   92.97    5.72
  -8   2   4   92.70    4.42
   8   2  -4   91.15    3.72
  -8   2   4   88.89    5.67
  -6  -2   4  253.17   11.43
   6  -2  -4  254.21   11.18
   6  -2  -4  257.96   10.51
  -6  -2   4  263.51   11.43
  -6  -2   4  263.55   11.61
   6  -2  -4  245.42   11.69
  -6  -2   4  252.06   11.37
  -6   2   4  253.26   11.51
  -6   2   4  247.40   11.51
   6   2  -4  272.15   11.82
  -6   2   4  268.02   10.44
  -6   2   4  239.95   11.55
   4  -2  -4  346.26   14.37
   4  -2  -4  330.77   14.70
   4  -2  -4  364.66   13.54
  -4  -2   4  347.19   14.55
  -4  -2   4  348.04   14.51
  -4   2   4  340.49   14.58
  -4   2   4  320.89   14.50
   4   2  -4  343.85   14.61
  -4   2   4  329.91   14.40
   2  -2  -4    2.90    1.02
  -2  -2   4    1.47    1.10
   2  -2  -4    3.89    1.24
   2  -2  -4    2.34    1.11
  -2  -2   4    0.21    0.84
  -2  -2   4    5.22    1.05
   2   2  -4    3.86    1.04
  -2   2   4    2.16    1.00
  -2   2   4    2.67    1.11
  -2   2   4    1.86    0.76
   0  -2   4   43.85    2.35
   0  -2   4   42.05    2.85
   0  -2  -4   44.23    2.43
   0  -2  -4   40.00    2.91
   0  -2  -4   44.89    2.99
   0   2  -4   45.68    2.71
   0   2   4   44.67    2.19
   0   2   4   44.05    2.70
   0   2   4   47.46    2.76
   0   2  -4   45.07    2.23
  -2  -2  -4  179.56    7.97
  -2  -2  -4  178.94    7.66
   2  -2   4  171.62    7.87
  -2  -2  -4  168.31    8.11
  -2  -2  -4  174.82    8.26
   2  -2   4  171.84    8.09
   2   2   4  175.47    7.54
  -2   2  -4  181.70    7.49
   2   2   4  171.03    7.69
  -2   2  -4  182.50    8.27
  -4  -2  -4  573.85   22.99
  -4  -2  -4  574.52   24.04
   4  -2   4  599.25   24.06
  -4  -2  -4  616.52   24.08
  -4  -2  -4  605.61   23.38
   4   2   4  578.98   22.93
   4   2   4  569.13   23.52
   4   2   4  550.47   23.54
  -4   2  -4  564.76   23.44
  -4   2  -4  581.63   24.05
  -6  -2  -4   36.60    2.89
  -6  -2  -4   29.71    3.23
   6  -2   4   39.49    3.34
  -6  -2  -4   29.52    3.05
  -6  -2  -4   37.07    2.18
   6   2   4   32.56    2.82
  -6   2  -4   36.33    2.93
   6   2   4   33.87    2.30
  -6   2  -4   31.84    3.28
  -8  -2  -4  154.25    6.57
   8  -2   4  134.61    7.62
  -8  -2  -4  112.41    7.43
  -8  -2  -4  152.71    7.23
  -8  -2  -4  141.09    7.93
  -8   2  -4  130.12    7.69
  -8   2  -4  138.82    7.11
  -8   2  -4  144.52    7.84
   8   2   4  148.81    7.33
 -10  -2  -4  294.20   13.00
 -10  -2  -4  297.16   14.01
  10  -2   4  282.59   13.76
 -10  -2  -4  272.56   12.24
 -10   2  -4  282.77   12.92
 -10   2  -4  261.00   13.46
 -10   2  -4  304.81   13.82
  10   2   4  255.39   12.94
 -12  -2  -4   70.57    6.22
 -12  -2  -4   56.24    5.75
  12  -2   4   65.49    5.85
 -12   2  -4   74.43    6.17
 -12   2  -4   65.20    4.34
 -12   2  -4   63.39    5.37
 -12   2  -4   57.94    5.37
  14  -2   4   -4.76    3.80
 -14  -2  -4    0.08    3.67
 -14  -2  -4   -2.62    3.94
 -14  -2  -4    3.39    2.56
 -14   2  -4   -2.08    3.79
 -14   2  -4    1.14    2.65
 -14   2  -4    1.33    3.34
 -14   2  -4    2.51    2.35
  14   2   4    7.92    4.16
 -16  -2  -4   60.31    6.39
 -16  -2  -4   34.51    6.49
  16  -2   4   35.63    6.64
 -16   2  -4   52.64    7.17
 -16   2  -4   55.20    7.39
 -16   2  -4   49.15    6.53
  16   2   4   43.06    7.06
  17  -3  -4   50.41    8.08
 -17  -3   4   63.71    6.65
 -17  -3   4   59.39    7.43
 -17  -3   4   42.26    6.90
 -17   3   4   54.98    5.88
 -17   3   4   47.70    6.89
 -17   3   4   44.25    6.86
  17   3  -4   54.46    8.03
  15  -3  -4   71.90    6.23
 -15  -3   4   65.17    7.75
  15  -3  -4   80.90    8.48
 -15  -3   4   60.69    5.88
 -15  -3   4   75.20    8.18
 -15  -3   4   72.72    8.02
 -15   3   4   64.60    6.34
 -15   3   4   73.01    8.59
  15   3  -4   50.31    7.32
 -15   3   4   68.26    7.95
 -15   3   4   67.51    5.46
  13  -3  -4  108.01    6.92
 -13  -3   4   98.41    6.98
 -13  -3   4  106.02    7.60
 -13  -3   4  107.53    6.74
  13  -3  -4  100.82    7.91
  13   3  -4  100.50   12.81
  13   3  -4   90.10    6.03
 -13   3   4   94.37    7.00
 -13   3   4   99.39    5.82
 -13   3   4   95.88    7.97
 -13   3   4   97.27    6.92
 -11  -3   4  208.30   10.38
 -11  -3   4  211.08   11.29
  11  -3  -4  203.74   11.30
 -11  -3   4  217.84   11.04
 -11  -3   4  251.47   12.75
  11  -3  -4  212.41   10.69
  11   3  -4  221.32    8.85
 -11   3   4  216.93   11.37
 -11   3   4  216.41   11.42
 -11   3   4  213.38    9.68
 -11   3   4  226.42   11.03
  11   3  -4  213.98   11.43
  11   3  -4  207.65    8.92
  -9  -3   4    1.85    1.72
   9  -3  -4   -3.24    1.79
  -9  -3   4    0.08    1.39
   9  -3  -4    1.48    1.60
  -9  -3   4    0.55    1.96
  -9  -3   4    1.87    1.65
  -9   3   4    0.67    1.84
  -9   3   4   -1.19    1.64
   9   3  -4    2.30    1.97
  -9   3   4   -2.57    1.65
  -9   3   4    1.78    1.04
  -7  -3   4   17.84    2.43
   7  -3  -4   19.90    2.52
  -7  -3   4   15.05    2.48
   7  -3  -4   15.58    2.48
  -7  -3   4   16.34    2.46
   7   3  -4   18.53    2.77
  -7   3   4   18.38    2.57
  -7   3   4   17.11    1.34
  -7   3   4   20.87    2.80
  -7   3   4   13.66    2.24
  -5  -3   4    8.15    1.64
   5  -3  -4    5.44    1.52
  -5  -3   4    8.90    1.68
  -5  -3   4    9.07    1.80
   5  -3  -4    7.60    1.74
   5   3  -4    9.01    1.91
  -5   3   4    7.26    1.50
  -5   3   4    8.14    1.63
  -5   3   4    8.76    1.81
   3  -3  -4  123.81    6.18
  -3  -3   4  118.16    5.81
   3  -3  -4  108.72    5.95
  -3  -3   4  121.26    5.98
   3  -3  -4  116.11    5.92
  -3   3   4  114.29    5.79
   3   3  -4  119.55    5.76
  -3   3   4  111.82    5.96
  -3   3   4  119.51    5.70
   1  -3  -4    6.97    0.98
   1  -3  -4    7.13    1.51
  -1  -3   4    4.82    1.28
   1  -3  -4    7.41    1.57
   1  -3  -4    5.31    1.39
  -1  -3   4    8.47    1.48
  -1   3   4    8.55    1.37
   1   3  -4    6.93    1.17
   1   3  -4    7.43    0.72
  -1   3   4    7.27    1.48
  -1   3   4    7.39    1.04
   1  -3   4   89.81    3.78
   1  -3   4   86.36    4.66
   1  -3   4   90.43    4.80
  -1  -3  -4   82.60    4.83
  -1  -3  -4   88.84    4.86
  -1  -3  -4   79.19    4.37
   1   3   4   90.67    3.79
  -1   3  -4   90.23    4.92
   1   3   4   88.67    4.40
   1   3   4   87.92    4.26
  -3  -3  -4   67.06    4.37
  -3  -3  -4   74.63    4.19
   3  -3   4   74.52    4.38
  -3  -3  -4   60.46    4.23
  -3   3  -4   68.80    4.31
   3   3   4   73.50    3.72
   3   3   4   70.96    3.55
  -5  -3  -4  343.30   15.95
  -5  -3  -4  349.92   15.81
   5  -3   4  380.49   16.01
   5   3   4  369.32   14.38
  -5   3  -4  356.78   15.46
   5   3   4  373.42   15.27
   5   3   4  372.98   14.49
   5   3   4  359.85   15.19
  -5   3  -4  363.83   15.99
  -7  -3  -4   34.40    3.19
   7  -3   4   48.77    4.14
  -7  -3  -4   55.14    4.43
  -7  -3  -4   45.65    4.00
   7   3   4   47.78    3.44
  -7   3  -4   47.20    3.66
  -7   3  -4   52.37    4.29
   9  -3   4   74.93    5.67
  -9  -3  -4   83.31    4.38
  -9  -3  -4   71.57    5.56
  -9  -3  -4   80.79    5.09
  -9  -3  -4   81.11    5.88
  -9   3  -4   72.66    5.60
  -9   3  -4   74.86    5.38
   9   3   4   70.38    4.86
  -9   3  -4   65.81    5.06
  11  -3   4    1.59    2.31
 -11  -3  -4    1.81    2.15
 -11  -3  -4    4.21    2.00
  11  -3   4    2.72    2.45
 -11  -3  -4    3.91    2.80
 -11   3  -4    6.22    2.66
  11   3   4    1.80    1.97
 -11   3  -4    5.51    2.43
 -11   3  -4    6.32    2.25
  13  -3   4   13.98    3.46
 -13  -3  -4    8.60    3.99
 -13  -3  -4   14.86    4.08
 -13  -3  -4   12.32    2.81
 -13   3  -4   12.85    3.47
  13   3   4   16.33    4.68
 -13   3  -4   18.13    3.38
 -13   3  -4   17.12    2.99
 -13   3  -4   19.93    4.09
 -15  -3  -4   19.49    5.41
 -15  -3  -4   20.95    3.73
  15  -3   4   18.72    5.26
 -15   3  -4   23.30    3.57
 -15   3  -4   16.50    5.91
 -15   3  -4   21.48    5.25
  15   3   4   14.19    5.08
 -15   3  -4   25.51    5.34
 -16  -4   4    7.94    3.70
  16  -4  -4    8.31    4.93
 -16  -4   4   -1.76    4.23
  16   4  -4   14.65    5.81
 -16   4   4    1.51    4.52
 -16   4   4   -4.56    4.91
 -16   4   4    5.19    3.03
 -16   4   4   -2.52    4.38
  14  -4  -4    9.25    4.86
 -14  -4   4    7.37    4.41
 -14  -4   4    9.55    2.86
 -14  -4   4   16.23    4.33
  14  -4  -4   13.28    3.42
 -14   4   4    9.03    3.91
 -14   4   4   12.63    3.50
 -14   4   4    7.22    4.53
 -14   4   4    9.89    2.50
  14   4  -4    7.62    4.00
  12  -4  -4    0.70    2.43
 -12  -4   4   -3.35    2.93
  12  -4  -4   -2.21    2.20
 -12  -4   4    2.06    2.40
 -12  -4   4   -0.64    2.05
 -12   4   4   -0.95    2.15
 -12   4   4   -1.67    2.20
 -12   4   4   -1.08    1.54
 -12   4   4    1.71    2.18
  12   4  -4   -2.30    2.07
  10  -4  -4    9.80    2.65
 -10  -4   4    7.53    2.46
 -10  -4   4    7.29    1.98
 -10  -4   4    8.24    2.45
  10  -4  -4    9.23    2.43
 -10   4   4    9.85    2.51
 -10   4   4    5.78    1.26
 -10   4   4    5.31    2.45
  10   4  -4   10.95    2.61
 -10   4   4    3.26    2.38
   8  -4  -4    2.87    1.58
  -8  -4   4   -1.17    1.70
  -8  -4   4    4.08    1.72
  -8  -4   4    1.34    1.77
   8  -4  -4    1.64    1.87
   8   4  -4    2.75    1.86
  -8   4   4    2.81    1.74
  -8   4   4    2.03    1.68
  -8   4   4   -2.14    1.49
  -8   4   4    1.26    0.65
   6  -4  -4   88.73    5.43
  -6  -4   4   89.56    5.42
   6  -4  -4  100.05    5.49
  -6  -4   4   88.87    5.24
  -6  -4   4   88.93    5.22
  -6   4   4   94.24    5.52
   6   4  -4   96.41    5.44
  -6   4   4   87.86    5.29
  -6   4   4   90.65    5.48
  -4  -4   4   83.73    3.52
   4  -4  -4   82.77    4.85
  -4  -4   4   80.57    4.78
   4  -4  -4   80.15    4.87
   4  -4  -4   77.16    4.94
  -4  -4   4   84.45    4.71
  -4   4   4   83.00    4.69
   4   4  -4   83.67    4.61
  -4   4   4   80.72    4.86
  -4   4   4   83.02    4.73
  -2  -4   4    0.23    0.97
   2  -4  -4   -0.34    0.59
   2  -4  -4    0.33    1.27
  -2  -4   4   -0.32    1.09
   2  -4  -4    0.56    1.24
   2  -4  -4   -0.79    1.17
  -2   4   4    0.70    1.13
   2   4  -4    0.86    0.90
   2   4  -4    0.13    0.61
  -2   4   4   -0.72    0.85
  -2   4   4   -0.06    0.87
   0  -4  -4   58.42    3.22
   0  -4  -4   65.67    4.04
   0  -4   4   59.45    3.73
   0  -4   4   58.71    3.75
   0  -4  -4   57.24    3.84
   0   4   4   54.86    3.24
   0   4   4   62.51    3.69
   0   4   4   57.45    3.37
  -2  -4  -4   64.48    4.25
   2  -4   4   68.87    4.18
  -2  -4  -4   71.84    4.43
   2  -4   4   67.18    3.15
  -2  -4  -4   65.17    3.87
  -2  -4  -4   63.32    3.02
   2   4   4   67.91    3.10
   2   4   4   65.07    3.38
   2   4   4   63.19    3.57
  -2   4  -4   63.02    4.25
  -4  -4  -4    2.49    1.51
   4  -4   4    3.75    1.64
  -4  -4  -4    2.89    1.56
  -4  -4  -4    0.46    1.44
   4   4   4    3.33    1.08
  -4   4  -4   -0.04    1.39
   4   4   4    3.51    0.78
  -4   4  -4    2.84    1.33
   4   4   4    2.28    0.97
   4   4   4    3.48    0.95
  -6  -4  -4    6.93    1.29
  -6  -4  -4   10.11    2.20
   6  -4   4    8.67    2.09
  -6  -4  -4    3.92    1.93
  -6   4  -4    6.00    2.07
   6   4   4    4.28    1.47
  -6   4  -4    6.32    1.82
   6   4   4    4.50    1.36
   6   4   4    6.41    0.84
  -8  -4  -4    0.41    1.75
   8  -4   4   -2.99    1.69
  -8  -4  -4    2.38    2.01
  -8  -4  -4    2.33    1.94
   8   4   4    1.96    1.37
  -8   4  -4    4.27    2.32
  -8   4  -4    0.09    1.57
  10  -4   4   46.02    4.62
  10  -4   4   46.85    4.84
 -10  -4  -4   47.20    4.93
 -10  -4  -4   47.11    5.33
  10   4   4   42.44    4.03
 -10   4  -4   43.47    4.48
 -10   4  -4   43.61    4.46
 -10   4  -4   38.99    4.84
  12  -4   4   67.35    5.84
 -12  -4  -4   72.35    7.19
 -12   4  -4   73.88    6.08
 -12   4  -4   83.63    5.94
 -12   4  -4   65.78    6.45
 -14  -4  -4    9.44    4.62
  14  -4   4    6.21    4.40
 -14   4  -4    4.91    2.93
  14   4   4    6.12    4.94
 -14   4  -4    8.83    4.15
 -14   4  -4    9.30    4.21
 -16  -4  -4   34.99    6.50
  16  -4   4   25.76    6.33
  16   4   4   25.09    6.59
 -16   4  -4   33.72    6.13
 -16   4  -4   20.07    5.65
 -16   4  -4   34.66    7.20
  15  -5  -4    1.14    5.18
 -15  -5   4    5.24    4.30
  15  -5  -4   -1.25    4.26
 -15  -5   4    2.80    3.24
  15   5  -4    2.59    4.39
 -15   5   4    3.12    4.08
 -15   5   4   -2.30    2.41
 -15   5   4    2.31    4.63
 -15   5   4    5.50    4.77
 -13  -5   4   -0.26    2.50
 -13  -5   4    1.22    4.25
  13  -5  -4   -0.48    2.76
 -13  -5   4    7.79    4.00
 -13   5   4    3.34    3.80
 -13   5   4    5.49    2.81
  13   5  -4    5.19    3.95
 -13   5   4    3.92    3.59
 -13   5   4    4.14    1.86
 -11  -5   4    5.22    2.52
  11  -5  -4    5.26    2.66
 -11  -5   4    2.97    2.12
  11  -5  -4    6.26    2.49
 -11  -5   4    7.12    2.98
  11   5  -4    6.49    2.74
 -11   5   4    5.82    2.33
 -11   5   4    5.74    2.48
 -11   5   4    2.43    2.40
  -9  -5   4    1.62    1.90
   9  -5  -4    1.51    2.13
  -9  -5   4    0.72    1.80
   9  -5  -4    3.21    2.02
  -9  -5   4    0.68    2.09
  -9   5   4    0.59    1.98
  -9   5   4    2.21    2.09
   9   5  -4    0.26    1.99
  -9   5   4    3.20    2.16
  -7  -5   4    2.60    1.58
  -7  -5   4    0.60    1.84
   7  -5  -4    2.74    1.76
  -7  -5   4    4.27    1.68
   7  -5  -4    0.50    1.78
   7   5  -4   -0.77    1.55
  -7   5   4    2.52    1.71
  -7   5   4    2.10    1.60
  -7   5   4    0.14    1.65
  -5  -5   4   41.38    3.64
  -5  -5   4   45.07    2.19
   5  -5  -4   39.32    3.68
   5  -5  -4   46.00    3.89
  -5  -5   4   40.35    3.37
   5  -5  -4   40.29    3.68
  -5  -5   4   41.48    3.34
  -5   5   4   47.25    3.62
  -5   5   4   43.50    3.55
   5   5  -4   37.16    3.37
  -5   5   4   48.81    3.87
   3  -5  -4   34.35    2.96
   3  -5  -4   28.26    2.87
   3  -5  -4   27.52    3.09
  -3  -5   4   22.89    2.65
  -3  -5   4   23.66    2.96
  -3  -5   4   28.24    2.73
   3   5  -4   23.81    2.29
  -3   5   4   26.93    2.48
   3   5  -4   24.59    2.01
  -3   5   4   27.22    2.76
  -3   5   4   23.86    2.63
   1  -5  -4   43.17    3.57
  -1  -5   4   51.33    3.46
  -1  -5   4   45.64    3.17
   1  -5  -4   49.73    3.72
  -1   5   4   47.87    3.02
  -1   5   4   46.03    3.43
  -1   5   4   45.40    2.89
   1   5  -4   39.08    2.80
  -1  -5  -4    6.83    1.77
  -1  -5  -4    5.24    1.76
  -1  -5  -4    9.37    1.54
   1  -5   4    8.25    1.85
   1   5   4    8.49    1.24
  -1   5  -4    6.20    1.66
   1   5   4    7.45    1.15
   1   5   4    8.68    1.70
  -3  -5  -4   33.16    2.97
  -3  -5  -4   31.85    3.19
  -3  -5  -4   27.94    3.26
   3  -5   4   29.05    3.11
   3   5   4   31.73    2.02
   3   5   4   25.49    2.40
   3   5   4   30.16    2.08
  -3   5  -4   29.74    3.10
   5  -5   4   -2.62    1.51
  -5  -5  -4   -0.06    1.45
  -5  -5  -4   -1.06    1.54
  -5  -5  -4    1.30    1.64
   5   5   4   -1.52    0.99
  -5   5  -4    2.71    1.64
  -5   5  -4   -1.92    1.53
   5   5   4    2.30    0.93
   5   5   4    1.71    0.93
  -7  -5  -4   20.94    3.51
  -7  -5  -4   26.43    3.52
   7  -5   4   15.54    2.67
   7   5   4   20.73    1.43
  -7   5  -4   24.86    3.39
   7   5   4   20.11    2.28
  -7   5  -4   18.66    2.79
   7   5   4   23.85    2.50
  -9  -5  -4    4.34    2.60
   9  -5   4    1.88    1.93
  -9  -5  -4   -0.17    2.14
   9  -5   4    1.53    2.29
   9   5   4    7.52    2.99
  -9   5  -4    4.39    2.27
  -9   5  -4   -0.03    2.07
   9   5   4    1.54    1.52
 -11  -5  -4   34.21    6.82
  11  -5   4   35.44    4.39
 -11   5  -4   23.12    3.60
 -11   5  -4   30.36    4.15
 -11   5  -4   25.28    3.95
  13  -5   4    3.32    2.93
 -13  -5  -4    1.52    3.49
 -13   5  -4    5.75    6.39
  13   5   4    3.21    3.94
 -13   5  -4   -1.15    3.82
 -15  -5  -4   16.87    5.63
  15  -5   4   12.11    5.05
 -15   5  -4   19.78    4.15
 -15   5  -4   13.30    4.91
 -15   5  -4   13.07    4.73
  15   5   4   15.68    5.68
 -15   5  -4   13.52    5.96
  14  -6  -4   41.63    6.23
 -14  -6   4   56.00    7.14
 -14  -6   4   65.17    5.86
  14  -6  -4   51.61    6.77
 -14   6   4   46.72    6.43
 -14   6   4   70.12    8.13
  14   6  -4   46.21    6.60
 -14   6   4   56.27    7.02
  12  -6  -4   -4.27    2.38
  12  -6  -4    5.44    2.68
 -12  -6   4    5.96    3.66
 -12  -6   4    1.73    3.39
 -12   6   4    4.35    1.36
 -12   6   4    6.03    2.37
 -12   6   4    4.03    3.63
  12   6  -4   -3.09    2.76
 -12   6   4    3.71    3.86
  10  -6  -4   25.85    3.82
  10  -6  -4   25.30    3.94
 -10  -6   4   19.46    3.08
 -10  -6   4   20.96    3.67
 -10  -6   4   22.19    3.26
 -10   6   4   21.66    3.78
  10   6  -4   20.14    3.28
 -10   6   4   19.90    3.46
 -10   6   4   16.52    3.02
  -8  -6   4    8.37    2.33
  -8  -6   4    7.38    2.15
   8  -6  -4    8.26    2.22
   8  -6  -4   11.40    2.67
  -8  -6   4    6.91    2.10
  -8   6   4   13.01    2.75
  -8   6   4    7.80    2.31
   8   6  -4    6.59    2.20
  -8   6   4    8.33    2.40
  -6  -6   4    5.37    1.87
  -6  -6   4   10.78    1.29
   6  -6  -4   10.43    2.39
  -6  -6   4   12.34    2.52
   6  -6  -4    9.79    2.58
  -6  -6   4   11.55    2.21
   6  -6  -4   10.81    2.57
  -6   6   4    8.96    2.29
  -6   6   4   10.07    2.40
   6   6  -4   12.89    2.13
  -6   6   4   15.75    2.57
  -4  -6   4    5.37    1.70
   4  -6  -4    2.87    1.77
   4  -6  -4    5.75    1.71
  -4  -6   4    4.48    1.23
   4  -6  -4    4.19    2.06
   4   6  -4    6.85    1.54
  -4   6   4    5.19    1.57
  -4   6   4    5.15    1.88
  -4   6   4    6.57    1.88
   2  -6  -4    0.16    1.61
  -2  -6   4    0.29    1.39
   2  -6  -4    1.97    1.34
  -2  -6   4    0.84    1.20
   2  -6  -4    1.77    0.96
   2  -6  -4    1.49    1.57
   2   6  -4    0.80    0.59
   2   6  -4   -0.04    0.94
  -2   6   4    0.26    1.19
  -2   6   4    0.11    0.99
  -2   6   4    2.96    1.53
   0  -6   4    7.27    1.48
   0  -6  -4    3.60    1.85
   0  -6  -4    2.25    1.57
   0  -6   4    5.49    1.62
   0  -6   4    7.10    1.85
   0  -6  -4    3.94    1.42
   0   6   4    5.65    1.18
   0   6   4    4.53    1.31
   0   6   4    5.18    1.70
   0   6  -4    4.52    1.57
  -2  -6  -4    5.12    1.87
  -2  -6  -4    4.79    1.44
   2  -6   4    3.57    0.79
  -2  -6  -4    2.98    1.84
   2  -6   4    5.66    1.70
   2  -6   4    5.38    1.42
  -2   6  -4    5.77    1.73
   2   6   4    5.10    1.14
   2   6   4    6.33    1.10
   2   6   4    5.56    1.52
   4  -6   4  101.52    6.11
  -4  -6  -4   99.35    6.24
  -4  -6  -4  106.81    6.48
  -4  -6  -4  105.52    5.90
  -4   6  -4  100.72    6.28
  -4   6  -4   95.58    6.08
   4   6   4  104.67    5.27
   4   6   4  102.21    4.73
   6  -6   4   73.73    4.35
   6  -6   4   63.22    5.09
  -6  -6  -4   70.85    5.60
  -6  -6  -4   80.75    5.59
  -6  -6  -4   58.96    4.92
   6   6   4   69.76    3.88
   6   6   4   77.78    3.88
  -6   6  -4   81.81    5.49
  -6   6  -4   81.61    5.60
   6   6   4   69.51    3.92
  -8  -6  -4   46.84    4.29
  -8  -6  -4   43.15    4.84
   8  -6   4   46.27    3.86
   8  -6   4   45.35    4.89
   8   6   4   43.10    3.70
  -8   6  -4   37.90    4.66
   8   6   4   43.64    3.32
   8   6   4   43.42    2.57
   8   6   4   42.98    2.24
  -8   6  -4   36.93    4.25
 -10  -6  -4   11.18    2.99
  10  -6   4    6.11    2.58
 -10  -6  -4   10.41    3.66
 -10   6  -4    8.80    2.78
 -10   6  -4    5.88    2.41
 -12  -6  -4    2.70    3.36
  12  -6   4    0.90    2.74
 -12   6  -4    4.38    2.64
 -12   6  -4    2.80    4.66
  14  -6   4    5.49    4.79
 -14  -6  -4    0.11    3.84
 -14   6  -4    0.56    3.90
 -14   6  -4   -4.98    3.60
 -14   6  -4    0.68    4.77
  14   6   4   -5.95    4.75
  15  -7  -4    7.01    5.28
 -15  -7   4    7.59    5.14
  15  -7  -4    5.83    5.26
 -15   7   4    6.38    4.65
 -15   7   4    8.81    5.21
 -15   7   4    0.48    4.62
  15   7  -4   -1.63    4.44
  13  -7  -4   -4.85    3.89
 -13  -7   4    2.80    4.12
  13  -7  -4    3.29    3.92
 -13   7   4   -1.25    3.66
 -13   7   4   -0.32    3.89
  13   7  -4    6.32    4.18
 -13   7   4    2.59    4.29
  11  -7  -4   16.01    3.65
  11  -7  -4   13.45    3.33
 -11  -7   4   15.22    4.39
 -11   7   4   14.93    4.08
 -11   7   4   10.05    3.97
  11   7  -4   24.79    3.85
   9  -7  -4   18.35    3.23
  -9  -7   4   13.63    3.03
   9  -7  -4   21.25    3.89
   9  -7  -4   16.06    3.09
  -9   7   4   16.94    3.02
  -9   7   4   15.25    3.05
   9   7  -4   16.52    3.05
  -9   7   4   14.56    3.19
  -7  -7   4  158.63    6.46
  -7  -7   4  138.49    8.35
   7  -7  -4  145.87    8.53
   7  -7  -4  137.57    7.87
   7  -7  -4  135.14    8.28
  -7   7   4  136.49    8.12
  -7   7   4  142.37    8.13
  -7   7   4  153.83    8.49
   7   7  -4  134.08    7.66
  -5  -7   4    0.50    1.34
  -5  -7   4    0.62    1.69
   5  -7  -4   -2.68    1.57
   5  -7  -4   -0.48    1.95
   5  -7  -4    0.99    2.09
  -5  -7   4    3.91    1.83
  -5   7   4   -0.74    1.56
  -5   7   4   -0.48    1.84
  -5   7   4   -0.81    1.35
   5   7  -4    1.60    1.65
  -3  -7   4  375.73   16.18
  -3  -7   4  388.48   16.20
   3  -7  -4  375.63   17.40
   3  -7  -4  385.68   17.35
   3  -7  -4  377.70   16.57
  -3   7   4  368.43   17.04
  -3   7   4  446.79   16.46
  -3   7   4  388.81   16.52
   3   7  -4  353.98   15.82
  -3   7   4  386.40   16.79
  -1  -7   4   16.90    2.42
   1  -7  -4   19.47    3.02
  -1  -7   4   22.18    2.62
   1  -7  -4   20.37    2.34
  -1  -7   4   21.71    2.06
   1  -7  -4   16.28    2.90
  -1   7   4   20.00    2.87
   1   7  -4   21.08    1.61
  -1   7   4   21.68    2.59
  -1   7   4   19.85    2.11
  -1  -7  -4    2.09    1.73
  -1  -7  -4    4.83    2.10
   1  -7   4    2.17    1.54
  -1  -7  -4    4.98    1.59
   1  -7   4    3.17    1.79
  -1   7  -4    2.58    1.52
   1   7   4    2.92    1.40
   1   7   4    2.44    1.01
   1   7   4    1.74    1.53
   3  -7   4    2.47    1.63
  -3  -7  -4    2.48    1.72
   3  -7   4    2.05    0.91
  -3  -7  -4    2.25    1.58
  -3  -7  -4    2.08    1.76
   3  -7   4    1.73    1.12
   3  -7   4   -1.22    1.81
  -3   7  -4    0.23    1.50
   3   7   4    0.91    0.82
   3   7   4    1.58    1.46
   3   7   4    0.52    1.17
  -5  -7  -4   41.43    3.88
   5  -7   4   41.73    2.89
  -5  -7  -4   36.18    4.32
   5  -7   4   43.26    4.23
  -5  -7  -4   35.59    4.09
  -5   7  -4   45.69    4.37
   5   7   4   36.75    2.43
  -5   7  -4   43.11    4.27
   5   7   4   36.61    3.13
  -7  -7  -4   82.79    6.09
  -7  -7  -4   87.05    6.38
   7  -7   4   71.77    5.94
   7  -7   4   74.29    4.78
  -7  -7  -4   80.64    5.96
   7   7   4   82.82    4.29
   7   7   4   77.35    4.31
  -7   7  -4   77.52    6.21
   7   7   4   76.71    4.30
  -7   7  -4   91.85    6.22
   9  -7   4    6.60    2.28
  -9  -7  -4    6.55    2.95
  -9  -7  -4    9.87    2.73
   9   7   4   11.19    2.25
  -9   7  -4    0.74    2.38
   9   7   4    9.12    1.82
  -9   7  -4    7.86    2.75
 -11  -7  -4    6.86    3.86
  11  -7   4    5.96    2.83
 -11  -7  -4    8.11    4.27
 -11   7  -4   -2.55    3.32
 -11   7  -4    4.65    2.72
 -11   7  -4    3.61    4.35
  13  -7   4   56.69    5.79
 -13  -7  -4   45.59    6.61
 -13   7  -4   48.22    6.65
 -13   7  -4   50.39    6.64
  13   7   4   48.96    6.98
 -13   7  -4   43.19    6.93
  14  -8  -4   56.28    7.74
 -14  -8   4   51.06    7.34
  14  -8  -4   47.73    7.20
  14   8  -4   51.21    7.05
 -14   8   4   52.33    6.80
 -14   8   4   48.83    7.24
 -14   8   4   48.29    7.36
  12  -8  -4   16.83    3.84
  12  -8  -4   21.13    5.10
 -12  -8   4   15.41    4.61
  12   8  -4    9.39    4.55
 -12   8   4   15.21    4.51
 -12   8   4    9.33    4.49
 -12   8   4   12.47    4.41
  10  -8  -4   -3.20    2.84
  10  -8  -4   -4.65    3.15
  10  -8  -4    8.34    3.10
 -10  -8   4   -0.80    3.22
  10   8  -4   -2.04    2.39
 -10   8   4   -4.74    2.85
 -10   8   4    6.59    3.71
 -10   8   4   -5.23    2.99
   8  -8  -4   55.51    5.01
   8  -8  -4   60.76    5.52
   8  -8  -4   47.67    5.06
  -8  -8   4   56.40    5.26
  -8   8   4   57.38    5.18
  -8   8   4   53.75    5.07
  -8   8   4   55.71    4.98
   8   8  -4   53.63    4.83
  -6  -8   4   33.78    4.29
   6  -8  -4   42.71    4.68
   6  -8  -4   46.69    4.18
   6  -8  -4   33.76    4.37
  -6  -8   4   44.88    4.01
  -6  -8   4   36.74    3.21
  -6   8   4   36.70    4.16
   6   8  -4   41.92    3.73
  -6   8   4   44.20    3.97
  -6   8   4   36.55    4.33
  -4  -8   4  109.98    5.78
   4  -8  -4   99.46    6.97
   4  -8  -4  101.00    6.06
   4  -8  -4  110.21    6.96
  -4   8   4  103.32    6.05
  -4   8   4  103.98    6.42
  -4   8   4  100.51    6.63
  -4   8   4  102.62    4.81
   4   8  -4  104.93    5.46
   2  -8  -4    1.83    2.05
  -2  -8   4   -4.05    1.74
  -2  -8   4    1.37    1.65
   2  -8  -4    2.59    1.88
   2   8  -4    1.77    0.98
  -2   8   4    2.33    1.40
  -2   8   4    0.43    1.56
  -2   8   4    2.38    1.96
   0  -8   4   77.28    4.98
   0  -8  -4   72.46    4.42
   0  -8  -4   65.13    5.12
   0  -8  -4   69.26    5.17
   0  -8   4   64.22    4.56
   0   8  -4   72.82    4.91
   0   8   4   66.63    4.63
   0   8   4   65.30    3.86
   2  -8   4  200.18    9.82
   2  -8   4  188.44   10.15
  -2  -8  -4  231.79    9.88
   2  -8   4  208.26    8.13
  -2  -8  -4  196.45   10.48
  -2  -8  -4  190.48   10.31
   2   8   4  190.50    8.46
  -2   8  -4  201.98   10.11
   2   8   4  194.29    9.37
  -4  -8  -4   10.27    2.51
  -4  -8  -4    5.56    2.40
   4  -8   4   10.37    2.71
   4  -8   4   11.39    1.81
  -4  -8  -4    6.23    2.52
   4  -8   4    9.36    2.50
   4   8   4   11.73    1.19
  -4   8  -4   13.91    2.93
  -4   8  -4   11.55    2.97
   4   8   4   13.40    2.30
  -6  -8  -4   13.73    3.32
  -6  -8  -4   13.34    2.71
   6  -8   4    4.84    2.42
  -6  -8  -4   12.56    2.96
   6  -8   4   14.27    1.99
  -6   8  -4   10.05    2.73
   6   8   4   10.61    2.09
   6   8   4   12.32    1.48
  -6   8  -4   14.09    3.00
  -8  -8  -4   18.14    3.44
  -8  -8  -4   23.09    3.77
   8  -8   4   23.91    2.99
  -8  -8  -4   32.17    4.74
   8   8   4   26.32    3.12
  -8   8  -4   21.40    3.84
  -8   8  -4   21.72    3.78
   8   8   4   23.95    2.46
   8   8   4   22.80    2.53
 -10  -8  -4   27.77    5.34
  10  -8   4   30.85    3.84
 -10  -8  -4   29.38    5.80
 -10   8  -4   26.06    5.24
 -10   8  -4   14.17    4.26
 -12  -8  -4   40.68    6.68
  12  -8   4   43.93    5.09
  12   8   4   27.67    5.78
 -12   8  -4   42.13    6.04
 -12   8  -4   40.16    6.62
 -12   8  -4   33.06    5.78
  13  -9  -4    3.28    4.33
  13  -9  -4   -2.27    5.11
 -13  -9   4   -1.72    4.14
  13  -9  -4    2.35    4.97
  13   9  -4    3.61    4.31
 -13   9   4   -1.83    4.12
 -13   9   4   -1.10    4.07
 -13   9   4    9.63    4.74
  11  -9  -4   57.44    7.09
  11  -9  -4   57.16    6.66
  11  -9  -4   42.17    6.18
 -11  -9   4   47.01    6.50
 -11   9   4   44.40    6.24
 -11   9   4   43.92    6.31
  11   9  -4   48.87    5.73
 -11   9   4   63.57    7.35
   9  -9  -4  116.59    9.49
   9  -9  -4  128.96    8.04
   9  -9  -4  126.84    9.53
  -9  -9   4  132.68    9.26
  -9   9   4  128.56    9.43
   9   9  -4  131.92    7.98
  -9   9   4  133.25    9.33
  -9   9   4  126.73    8.93
  -7  -9   4   33.95    4.79
  -7  -9   4   30.85    3.51
   7  -9  -4   28.36    4.26
   7  -9  -4   39.15    4.53
   7  -9  -4   36.71    4.07
  -7   9   4   24.95    3.95
   7   9  -4   30.12    3.65
  -7   9   4   30.50    4.26
  -7   9   4   33.09    4.01
   5  -9  -4   30.00    4.38
  -5  -9   4   42.49    4.92
   5  -9  -4   29.98    4.22
  -5  -9   4   27.12    3.24
   5  -9  -4   30.98    3.48
  -5   9   4   27.77    3.83
  -5   9   4   28.04    3.40
  -5   9   4   28.95    2.33
   5   9  -4   29.29    3.21
  -5   9   4   40.28    4.08
   3  -9  -4   83.54    6.17
   3  -9  -4   92.62    6.57
  -3  -9   4   85.82    5.44
   3   9  -4   92.32    4.37
  -3   9   4   79.86    5.94
  -3   9   4   81.10    5.82
  -3   9   4   82.59    5.21
   1  -9  -4  147.92    8.66
   1  -9  -4  144.26    8.82
  -1  -9   4  181.41    8.03
  -1  -9   4  150.13    8.19
   1  -9  -4  147.13    7.45
  -1   9   4  147.28    7.29
   1   9  -4  143.23    8.01
  -1   9   4  146.55    8.12
  -1  -9  -4   42.82    3.82
   1  -9   4   37.62    4.23
  -1  -9  -4   47.15    4.55
  -1  -9  -4   47.07    4.47
   1   9   4   41.65    3.92
  -1   9  -4   39.81    3.96
   1   9   4   49.46    3.03
   3  -9   4   37.89    4.19
  -3  -9  -4   32.70    4.14
  -3  -9  -4   40.86    4.49
  -3  -9  -4   32.87    3.82
   3  -9   4   34.13    2.73
   3  -9   4   35.51    4.42
  -3   9  -4   30.66    3.96
   3   9   4   35.74    2.23
   3   9   4   31.79    3.45
  -5  -9  -4   43.96    4.64
   5  -9   4   43.23    3.78
  -5  -9  -4   40.04    4.63
  -5  -9  -4   48.18    4.60
   5  -9   4   39.24    4.80
  -5   9  -4   42.85    5.01
   5   9   4   43.13    3.95
  -5   9  -4   25.96    3.91
   7  -9   4  155.18   10.51
  -7  -9  -4  150.40    9.08
  -7  -9  -4  160.84    9.58
   7  -9   4  138.93    7.05
  -7  -9  -4  159.15    9.46
  -7   9  -4  153.17    9.46
  -7   9  -4  136.20   12.51
   7   9   4  171.67    7.86
   9  -9   4   67.24    7.20
   9  -9   4   97.39    5.56
  -9  -9  -4   75.24    7.88
  -9  -9  -4   66.80    8.09
  -9  -9  -4   75.34    7.18
  -9   9  -4   69.79    7.83
   9   9   4   84.84    4.75
  -9   9  -4   80.69    7.75
  11  -9   4   30.55    5.88
 -11  -9  -4   35.25    6.34
 -11  -9  -4   26.75    5.48
  11  -9   4   32.02    4.38
 -11   9  -4   32.68    5.70
 -11   9  -4   32.95    6.21
  12 -10  -4   69.62    8.23
 -12 -10   4   64.17    8.24
  12 -10  -4   73.12    8.97
  12 -10  -4   79.49    7.77
  12  10  -4   67.89    7.60
 -12  10   4   86.51    8.58
 -12  10   4   63.56    7.78
 -12  10   4   65.90    8.16
  10 -10  -4    3.77    4.37
 -10 -10   4    1.40    3.65
  10 -10  -4    0.95    3.06
  10 -10  -4    2.36    4.05
 -10  10   4    3.30    3.41
 -10  10   4   -2.61    3.81
 -10  10   4    2.02    4.24
  10  10  -4    0.68    2.89
   8 -10  -4  149.07    8.80
  -8 -10   4  152.56   10.44
   8 -10  -4  154.90   10.82
  -8 -10   4  167.74    8.18
   8 -10  -4  163.98   10.78
  -8  10   4  147.31    9.63
  -8  10   4  152.12   10.33
   8  10  -4  152.37    8.71
  -8  10   4  156.44   10.64
   6 -10  -4   39.24    5.84
   6 -10  -4   59.28    4.84
   6 -10  -4   48.26    5.44
  -6 -10   4   55.16    4.53
  -6  10   4   64.57    6.67
  -6  10   4   58.64    5.44
   6  10  -4   57.99    4.49
  -6  10   4   45.99    5.39
   4 -10  -4   33.03    4.72
   4 -10  -4   34.44    4.54
   4  10  -4   33.64    3.05
  -4  10   4   28.43    4.05
  -4  10   4   40.97    4.56
  -4  10   4   34.11    3.73
   2 -10  -4   60.61    5.44
  -2 -10   4   61.32    4.79
  -2 -10   4   54.36    5.05
   2 -10  -4   55.84    5.56
  -2  10   4   66.87    5.18
  -2  10   4   57.46    4.13
   2  10  -4   51.10    4.48
   0 -10   4   80.17    5.75
   0 -10  -4   75.76    5.04
   0 -10  -4   70.01    6.21
   0 -10  -4   62.78    5.74
   0 -10   4   80.92    5.44
   0  10  -4   70.99    5.20
   0  10   4   56.94    5.26
   0  10   4   72.86    4.30
   2 -10   4  260.78   10.17
  -2 -10  -4  241.38   12.72
   2 -10   4  224.56   12.46
  -2 -10  -4  261.28   13.07
  -2 -10  -4  242.70   12.01
   2  10   4  248.19   10.48
  -2  10  -4  242.79   12.27
   2  10   4  263.98   12.03
   4 -10   4   97.11    5.19
  -4 -10  -4   89.65    6.46
  -4 -10  -4   91.70    6.81
   4 -10   4   96.47    7.06
  -4 -10  -4   86.91    6.86
  -4  10  -4  100.17    6.80
  -4  10  -4  104.57    7.53
   4  10   4   98.76    6.04
   6 -10   4    4.25    2.29
   6 -10   4   -0.90    4.01
  -6 -10  -4    0.30    2.52
  -6 -10  -4    1.11    2.38
  -6 -10  -4    1.67    2.83
   6  10   4   -1.29    2.24
  -6  10  -4    5.16    3.57
  -6  10  -4    0.22    3.40
  -8 -10  -4   58.57   10.49
  -8 -10  -4   81.18    8.12
  -8 -10  -4   86.16    8.33
   8 -10   4   81.09    8.07
   8 -10   4   76.76    6.10
  -8  10  -4   77.39    7.86
  -8  10  -4   76.63    7.50
   8  10   4   98.37    5.73
  10 -10   4  114.33    9.16
 -10 -10  -4  121.69   10.29
 -10 -10  -4  110.14    9.67
  10 -10   4  100.60    9.47
 -10  10  -4  122.86   10.06
 -10  10  -4  105.65    9.52
  11 -11  -4   77.53    7.48
 -11 -11   4   47.66    7.22
  11 -11  -4   57.88    8.09
  11 -11  -4   61.56    7.76
 -11  11   4   55.33    7.09
 -11  11   4   62.19    8.13
 -11  11   4   55.94    7.22
   9 -11  -4  149.49   10.78
  -9 -11   4  132.42   10.21
   9 -11  -4  135.12   10.83
   9 -11  -4  138.13    8.69
  -9  11   4  135.43   10.51
  -9  11   4  128.64   10.39
  -9  11   4  132.51    9.71
   9  11  -4  144.38    8.63
   7 -11  -4   12.51    4.72
   7 -11  -4   17.26    4.87
   7 -11  -4   15.19    3.29
  -7 -11   4   20.62    3.30
  -7  11   4   11.81    3.48
  -7  11   4   13.17    4.67
   7  11  -4   19.18    3.23
  -7  11   4    2.48    4.12
   5 -11  -4   25.30    5.42
  -5 -11   4   19.47    3.40
   5 -11  -4   26.08    4.14
  -5  11   4   18.08    3.82
  -5  11   4   16.99    3.71
  -5  11   4   20.61    4.65
   5  11  -4   23.25    2.62
   3 -11  -4  125.23    9.53
   3 -11  -4  132.79    8.45
  -3 -11   4  134.43    7.90
  -3  11   4  126.40    7.17
   3  11  -4  120.42    7.37
  -3  11   4  127.26    8.11
   1 -11  -4  163.58    9.77
   1 -11  -4  122.78   12.53
  -1 -11   4  172.15    9.48
  -1  11   4  163.01    8.07
   1  11  -4  166.47    8.84
  -1  11   4  167.61    9.29
  -1 -11  -4   11.13    2.80
  -1 -11  -4    9.02    3.06
   1 -11   4   16.20    3.35
   1  11   4    9.34    1.85
   1  11   4   10.58    2.89
  -1  11  -4   12.29    2.76
  -3 -11  -4   21.94    3.79
  -3 -11  -4   30.79    4.54
   3 -11   4   29.18    4.41
   3  11   4   27.30    3.68
   3  11   4   25.40    2.21
  -3  11  -4   21.72    4.62
  -3  11  -4   27.04    4.44
   5 -11   4   42.70    6.19
   5 -11   4   56.27    4.45
  -5 -11  -4   39.54    6.19
  -5 -11  -4   46.67    5.17
  -5 -11  -4   50.06    7.40
  -5  11  -4   48.45    6.33
  -5  11  -4   57.23    6.25
   5  11   4   57.54    4.90
  -7 -11  -4  134.47    9.67
  -7 -11  -4  114.95    9.75
  -7 -11  -4  117.74    9.85
   7 -11   4  115.40   10.02
   7 -11   4  118.31    7.50
  -7  11  -4  126.40    9.43
   7  11   4  115.44    7.33
  -7  11  -4  127.95   10.04
  -9 -11  -4   42.01    6.70
   9 -11   4   47.98    5.23
  -9 -11  -4   51.90    7.64
   9 -11   4   39.15    6.57
  -9 -11  -4   38.10    6.32
  -9  11  -4   39.19    6.66
  -9  11  -4   34.55    6.17
   9  11   4   45.38    4.41
   8 -12  -4   12.99    5.39
  -8 -12   4    5.21    3.86
   8 -12  -4   10.04    5.01
  -8  12   4   -3.01    3.95
  -8  12   4    5.76    4.34
   8  12  -4   13.18    3.55
  -8  12   4   10.19    3.75
   6 -12  -4   81.55    9.04
  -6 -12   4  118.06    7.55
   6 -12  -4  104.05    9.52
  -6  12   4   89.83    8.93
   6  12  -4  117.85    6.28
  -6  12   4  100.77    9.13
  -6  12   4  103.72    7.94
   4 -12  -4   76.57    8.06
  -4 -12   4   86.46    6.42
   4 -12  -4   70.91    7.81
  -4  12   4   71.22    6.40
  -4  12   4   76.45    7.88
  -4  12   4   66.47    7.45
   4  12  -4   78.77    6.66
   2 -12  -4    5.20    3.89
  -2 -12   4    1.04    2.79
   2 -12  -4    5.39    4.30
  -2  12   4    5.55    2.04
  -2  12   4    1.58    2.62
   2  12  -4   -0.23    2.74
   0 -12  -4   77.71    7.88
   0 -12   4   82.95    6.66
   0 -12  -4   71.54    6.97
   0  12  -4   63.18    6.66
   0  12   4   75.51    4.73
   0  12   4   77.21    6.14
   2 -12   4  104.55    9.99
  -2 -12  -4  107.33    9.17
  -2 -12  -4  112.19    7.37
  -2  12  -4   99.00    8.02
   2  12   4  108.87    5.41
   2  12   4  109.80    7.47
  -4 -12  -4   33.92    5.88
  -4 -12  -4   46.57    5.53
  -4 -12  -4   33.91    5.97
   4 -12   4   32.52    5.74
   4  12   4   32.33    4.15
  -4  12  -4   35.16    5.69
  -4  12  -4   29.90    4.98
  -6 -12  -4    9.84    4.49
  -6 -12  -4   23.16    5.27
  -6 -12  -4   13.12    4.74
   6 -12   4   11.91    3.39
   6 -12   4    8.36    4.53
  -6  12  -4   11.48    4.82
  -6  12  -4    9.39    3.76
   6  12   4   16.39    3.66
   6  12   4   12.72    3.04
   8 -12   4   34.33    4.49
  -8 -12  -4   21.23    5.77
  -8 -12  -4   16.69    5.08
  -8 -12  -4   23.02    5.83
   8 -12   4   17.85    5.76
   8  12   4   31.95    4.39
  -8  12  -4   25.49    5.55
  -8  12  -4   21.09    5.77
  -7 -13   4   40.01    5.43
   7 -13  -4   32.49    6.83
   7 -13  -4   33.50    6.59
  -7  13   4   35.08    6.19
  -7  13   4   36.22    6.41
  -7  13   4   30.48    5.21
  -5 -13   4   12.09    3.83
   5 -13  -4    9.28    4.89
   5 -13  -4   11.87    4.73
  -5  13   4   12.15    4.61
  -5  13   4    8.03    5.01
   5  13  -4    9.21    3.47
  -5  13   4    7.12    3.54
   3 -13  -4  112.66    9.57
  -3 -13   4  117.09    8.31
   3 -13  -4  117.68   10.03
   3  13  -4  114.99    8.12
  -3  13   4  126.58    9.55
  -3  13   4  117.82    7.86
   1 -13  -4   33.80    6.37
   1 -13  -4   36.26    6.24
  -1 -13   4   35.61    5.30
  -1  13   4   38.94    4.47
  -1  13   4   27.13    5.23
   1  13  -4   39.69    5.09
  -1 -13  -4   -6.77    4.04
   1 -13   4    2.56    4.20
  -1 -13  -4    1.39    4.22
   1  13   4    0.56    1.84
   1  13   4    4.55    3.11
  -1  13  -4    3.22    3.48
  -3 -13  -4   -2.50    3.99
  -3 -13  -4    1.84    3.57
  -3 -13  -4   -2.43    4.01
   3 -13   4   -1.41    4.07
   3  13   4   -1.53    2.89
  -3  13  -4    2.41    4.46
  -3  13  -4    1.90    3.50
  -5 -13  -4   53.75    6.70
   5 -13   4   51.43    7.31
  -5 -13  -4   70.35    8.65
  -5 -13  -4   58.72    7.68
   5  13   4   49.68    5.90
  -5  13  -4   67.14    7.70
  -5  13  -4   52.47    7.39
  -4 -14   4    4.13    4.43
   4 -14  -4    9.67    4.94
   4 -14  -4   10.19    5.41
  -4  14   4    7.24    4.86
  -4  14   4   12.44    5.11
   4  14  -4   10.30    3.83
  -4  14   4    7.62    3.62
   2 -14  -4   -2.09    4.12
   2 -14  -4   -3.19    4.62
  -2 -14   4   -1.63    4.84
   2  14  -4   -5.51    3.14
  -2  14   4   -1.39    2.98
  -2  14   4   -2.41    4.24
   0 -14  -4   -0.40    4.82
   0 -14  -4    4.96    5.25
   0 -14   4    1.29    4.92
   0  14  -4   -1.25    3.42
   0  14   4   -3.56    4.11
   0  14   4   -0.13    2.75
   2 -14   4   26.89    6.05
  -2 -14  -4   30.13    6.66
  -2 -14  -4   29.09    6.43
   2  14   4   26.27    2.69
  -2  14  -4   26.41    5.18
  -2  14  -4   29.39    5.81
   2  14   4   28.20    5.94
  16   0  -5   11.27    5.12
 -16   0   5    7.39    3.23
 -16   0   5   -4.40    4.07
 -16   0   5    4.24    3.24
  16   0  -5   -4.70    2.86
 -16   0   5   -2.74    3.71
 -14   0   5   -1.12    2.87
 -14   0   5   -4.49    2.30
  14   0  -5   -2.38    2.11
 -14   0   5    2.10    2.38
  14   0  -5    6.68    3.64
 -14   0   5    3.94    3.28
  12   0  -5    3.02    2.61
 -12   0   5    2.76    2.72
 -12   0   5    0.31    2.27
 -12   0   5    0.20    2.14
 -12   0   5    2.88    1.96
  12   0  -5   -2.57    1.50
 -10   0   5   -2.17    1.53
 -10   0   5   -1.03    1.89
  10   0  -5    0.29    1.27
  10   0  -5    0.99    2.13
 -10   0   5   -1.69    1.37
 -10   0   5   -0.35    1.82
  -8   0   5    0.57    1.52
   8   0  -5    1.46    1.03
  -8   0   5   -2.81    1.14
  -8   0   5   -0.03    1.51
  -8   0   5    0.25    1.60
   8   0  -5    0.46    1.69
   6   0  -5   -2.02    1.41
  -6   0   5    2.58    1.32
  -6   0   5    1.53    1.33
  -6   0   5    1.17    1.40
  -4   0   5    1.78    1.22
   4   0  -5   -0.48    1.17
  -4   0   5    0.69    1.11
  -4   0   5    0.08    1.01
  -2   0   5   -0.78    1.00
  -2   0   5    0.54    0.87
   2   0  -5    0.37    0.79
  -2   0   5    0.01    1.08
   2   0  -5    1.28    0.93
   2   0  -5   -1.72    1.05
   0   0  -5   -0.58    0.97
   0   0   5    0.39    0.83
   0   0   5   -0.27    0.82
   0   0  -5    0.16    0.75
   2   0   5   -1.89    0.95
   2   0   5   -0.76    0.88
  -2   0  -5   -0.43    1.08
  -2   0  -5   -1.46    0.84
  -4   0  -5    1.09    1.45
  -4   0  -5   -0.79    0.71
   4   0   5   -1.34    1.14
  -4   0  -5    1.04    1.17
   4   0   5   -0.17    0.84
   6   0   5    0.98    1.30
  -6   0  -5    0.54    1.03
  -6   0  -5   -0.38    1.41
  -6   0  -5    0.33    1.35
  -6   0  -5   -0.58    1.48
  -8   0  -5    1.74    1.68
  -8   0  -5    1.27    1.39
   8   0   5    1.77    1.76
  -8   0  -5   -0.91    1.88
 -10   0  -5   -1.16    1.60
 -10   0  -5   -3.52    1.98
  10   0   5    2.65    1.86
 -10   0  -5   -0.25    1.91
 -12   0  -5   -0.55    2.49
 -12   0  -5    2.21    2.91
 -12   0  -5   -1.53    2.19
 -14   0  -5   -2.48    3.47
  14   0   5    0.58    4.09
 -14   0  -5    0.46    3.82
 -14   0  -5    0.07    2.78
 -16   0  -5    6.32    4.89
 -16   0  -5    4.04    3.52
  16   0   5    0.40    4.63
 -16   0  -5    5.39    5.22
  17  -1  -5   14.61    3.90
 -17  -1   5   16.85    5.94
 -17  -1   5   25.77    5.93
 -17  -1   5   23.47    5.98
  17  -1  -5    7.11    5.34
 -17  -1   5   12.99    4.40
  17   1  -5   14.53    6.02
 -17   1   5   12.69    5.26
 -17   1   5    6.74    6.50
 -17   1   5   16.20    4.00
 -17   1   5   14.10    5.48
 -15  -1   5   17.92    4.43
 -15  -1   5   15.15    3.45
  15  -1  -5   11.16    3.32
  15  -1  -5   10.41    4.72
 -15  -1   5    9.70    3.28
 -15  -1   5    6.20    4.37
 -15   1   5    8.22    3.13
  15   1  -5    9.65    2.60
 -15   1   5   11.70    4.01
 -15   1   5    8.76    3.62
  15   1  -5   16.85    4.99
 -15   1   5   16.69    3.74
 -13  -1   5   12.19    3.07
  13  -1  -5   12.01    2.58
 -13  -1   5   19.57    3.18
 -13  -1   5   12.52    3.89
  13  -1  -5    9.30    4.13
 -13  -1   5   19.81    3.86
 -13   1   5   12.26    2.55
 -13   1   5   14.96    3.32
 -13   1   5    7.13    3.38
  13   1  -5   10.96    4.11
  13   1  -5   15.83    2.09
 -13   1   5    6.09    3.32
 -11  -1   5   13.95    3.20
  11  -1  -5   15.75    2.40
 -11  -1   5   17.87    3.06
 -11  -1   5   17.49    2.95
  11  -1  -5   15.55    3.17
 -11  -1   5   13.01    2.72
 -11   1   5   12.06    3.19
 -11   1   5   16.06    2.43
  11   1  -5   10.09    3.04
 -11   1   5   14.93    2.89
 -11   1   5   15.40    3.25
  11   1  -5   16.00    2.01
  -9  -1   5   59.59    4.43
  -9  -1   5   53.12    4.55
   9  -1  -5   55.86    5.01
  -9  -1   5   55.13    4.11
   9  -1  -5   61.40    3.86
  -9  -1   5   51.71    4.55
   9   1  -5   59.16    4.77
  -9   1   5   61.92    4.58
   9   1  -5   59.88    3.00
  -9   1   5   57.60    4.68
  -9   1   5   57.51    3.71
  -9   1   5   53.80    4.61
  -7  -1   5   11.58    2.28
  -7  -1   5   12.35    1.86
  -7  -1   5   12.74    2.23
  -7  -1   5   14.73    2.48
   7  -1  -5   13.38    2.64
   7  -1  -5   15.49    1.92
   7   1  -5    9.87    2.32
  -7   1   5   15.45    2.44
   7   1  -5   14.38    1.24
  -7   1   5   13.57    2.41
  -7   1   5   12.38    2.22
  -5  -1   5  119.58    5.08
   5  -1  -5  110.58    6.29
   5  -1  -5  114.28    5.48
  -5  -1   5  115.13    6.06
  -5  -1   5  115.09    6.00
  -5  -1   5  112.76    6.13
  -5   1   5  109.94    6.10
   5   1  -5  118.99    4.91
  -5   1   5  114.92    5.93
   5   1  -5  106.76    6.16
  -5   1   5  111.71    5.97
   3  -1  -5   37.71    2.98
  -3  -1   5   38.14    2.92
   3  -1  -5   35.78    2.56
  -3  -1   5   40.62    3.04
   3  -1  -5   38.46    3.19
  -3   1   5   40.05    3.00
   3   1  -5   34.36    3.01
  -3   1   5   38.42    2.63
  -3   1   5   39.61    2.89
   3   1  -5   42.26    2.75
   1  -1  -5    0.55    0.86
   1  -1  -5    0.72    0.82
  -1  -1   5   -0.53    0.94
   1  -1  -5   -0.34    1.01
  -1  -1   5   -0.14    0.92
   1   1  -5    0.46    0.71
  -1   1   5   -0.92    0.86
  -1   1   5   -0.41    0.67
  -1   1   5   -0.23    0.92
   1   1  -5    0.55    1.08
   1  -1   5   30.56    2.39
   1  -1   5   27.71    2.64
  -1  -1  -5   31.88    2.53
  -1  -1  -5   29.97    2.65
  -1  -1  -5   31.34    1.91
   1   1   5   31.97    2.33
  -1   1  -5   32.66    2.18
   1   1   5   31.59    2.54
   3  -1   5    6.35    1.25
  -3  -1  -5    1.13    1.15
   3  -1   5    4.28    1.33
  -3  -1  -5    3.14    1.44
  -3  -1  -5    4.98    2.26
  -3   1  -5    3.00    1.16
   3   1   5    3.14    1.00
  -3   1  -5    5.02    1.48
   3   1   5    4.97    1.32
  -5  -1  -5   89.73    5.05
   5  -1   5   81.78    5.15
  -5  -1  -5   88.86    5.25
  -5  -1  -5   90.99    3.85
  -5  -1  -5   89.18    5.41
  -5   1  -5   89.86    4.97
   5   1   5   84.10    4.96
  -5   1  -5   79.38    5.21
  -5   1  -5   88.89    4.45
   5   1   5   82.75    4.33
  -7  -1  -5   -2.17    1.58
  -7  -1  -5   -1.10    1.51
  -7  -1  -5    1.05    1.31
  -7  -1  -5   -0.28    1.01
  -7  -1  -5    1.14    1.75
   7  -1   5   -1.11    1.47
  -7   1  -5   -3.11    1.57
  -7   1  -5    0.85    1.57
   7   1   5    3.34    1.54
  -7   1  -5    0.02    1.27
  -9  -1  -5   35.01    4.14
  -9  -1  -5   39.86    3.20
   9  -1   5   39.40    4.07
  -9  -1  -5   38.73    4.37
  -9   1  -5   38.99    4.60
  -9   1  -5   40.14    3.54
  -9   1  -5   37.61    4.34
   9   1   5   41.14    3.85
  11  -1   5   39.44    4.60
 -11  -1  -5   43.13    4.58
 -11  -1  -5   51.06    4.99
 -11  -1  -5   39.43    3.76
  11   1   5   35.41    4.35
 -11   1  -5   39.19    4.85
 -11   1  -5   42.39    4.09
 -11   1  -5   45.96    4.57
 -13  -1  -5   43.49    6.26
 -13  -1  -5   47.32    5.40
 -13  -1  -5   36.77    4.04
  13  -1   5   28.57    5.39
 -13   1  -5   42.21    5.30
 -13   1  -5   41.94    5.82
  15  -1   5   -3.64    4.19
 -15  -1  -5    6.37    4.86
 -15  -1  -5    0.46    3.91
 -15  -1  -5    3.50    3.04
 -15   1  -5   -6.43    3.89
  15   1   5   -5.42    4.10
 -15   1  -5   -0.24    2.99
 -15   1  -5   -4.95    4.31
 -16  -2   5   34.69    6.26
 -16  -2   5   39.75    6.30
 -16  -2   5   35.16    4.65
  16  -2  -5   36.09    4.78
  16  -2  -5   32.57    6.14
 -16  -2   5   33.45    6.13
 -16   2   5   35.62    4.49
  16   2  -5   36.22    6.98
 -16   2   5   32.17    6.74
 -16   2   5   31.83    6.08
 -16   2   5   34.21    6.71
 -14  -2   5   41.97    5.46
 -14  -2   5   51.51    6.27
 -14  -2   5   46.14    5.00
  14  -2  -5   53.44    5.19
  14  -2  -5   38.20    5.96
 -14  -2   5   53.70    5.49
 -14   2   5   53.81    4.76
 -14   2   5   44.25    5.02
 -14   2   5   54.70    6.48
  14   2  -5   52.97    6.81
 -14   2   5   57.08    6.15
  12  -2  -5    0.45    2.36
 -12  -2   5   -2.30    2.10
  12  -2  -5    3.25    2.06
 -12  -2   5    1.46    2.75
 -12  -2   5    1.20    2.06
 -12  -2   5   -0.36    2.15
 -12   2   5    2.77    2.38
  12   2  -5   -1.09    2.18
 -12   2   5    5.48    2.50
  12   2  -5    0.12    1.01
 -12   2   5   -0.15    1.83
 -12   2   5    2.24    2.30
 -10  -2   5    1.17    1.94
  10  -2  -5    2.36    1.61
 -10  -2   5   -2.45    1.78
 -10  -2   5   -0.10    1.90
 -10  -2   5   -0.57    1.95
  10  -2  -5    4.07    2.32
 -10   2   5    2.32    1.96
 -10   2   5    2.52    2.11
  10   2  -5   -3.12    2.01
 -10   2   5    1.33    1.43
 -10   2   5   -0.80    1.83
  -8  -2   5  180.32    8.83
  -8  -2   5  178.23    9.07
   8  -2  -5  178.62    8.47
  -8  -2   5  171.88    8.86
  -8  -2   5  170.55    9.07
   8  -2  -5  175.60    9.40
  -8   2   5  178.13    9.25
  -8   2   5  180.51    7.77
  -8   2   5  183.06    9.15
  -8   2   5  187.99    9.17
   8   2  -5  173.48    9.30
   6  -2  -5   74.50    3.90
  -6  -2   5   72.21    4.77
   6  -2  -5   85.90    5.23
  -6  -2   5   81.36    4.69
  -6  -2   5   80.74    4.87
   6  -2  -5   78.75    4.45
  -6  -2   5   74.13    4.75
   6   2  -5   73.23    4.99
  -6   2   5   76.44    4.96
  -6   2   5   78.62    4.82
  -6   2   5   77.29    4.90
   4  -2  -5    5.10    1.33
   4  -2  -5    4.82    1.46
  -4  -2   5    5.85    0.86
   4  -2  -5    6.19    1.22
  -4  -2   5    6.04    1.55
  -4  -2   5    4.11    1.41
   4  -2  -5    4.81    1.72
  -4   2   5    6.56    1.66
  -4   2   5    4.59    1.26
   4   2  -5    6.76    1.73
  -4   2   5    4.30    1.45
  -2  -2   5   29.85    2.55
   2  -2  -5   29.32    2.65
  -2  -2   5   27.75    2.48
   2  -2  -5   27.15    2.70
   2  -2  -5   24.61    2.44
   2   2  -5   26.09    2.52
  -2   2   5   26.05    2.42
  -2   2   5   30.63    2.14
  -2   2   5   27.84    2.60
   0  -2  -5  283.21   12.23
   0  -2   5  272.29   12.08
   0  -2   5  285.53   12.09
   0  -2  -5  273.11   11.28
   0  -2  -5  271.88   12.10
   0   2  -5  282.79   11.32
   0   2  -5  282.82   11.89
   0   2   5  292.77   11.20
   0   2   5  274.06   11.87
   0   2   5  243.15   11.72
   2  -2   5  129.00    6.61
   2  -2   5  126.91    6.28
  -2  -2  -5  132.01    6.26
  -2  -2  -5  138.11    6.70
  -2  -2  -5  121.13    6.34
  -2  -2  -5  130.12    6.74
  -2   2  -5  125.84    5.85
  -2   2  -5  123.41    6.61
   2   2   5  132.26    5.99
   2   2   5  131.95    6.26
   4  -2   5    1.75    1.38
  -4  -2  -5    1.88    1.31
  -4  -2  -5    1.22    1.23
  -4  -2  -5    2.65    1.38
  -4   2  -5    3.49    1.26
  -4   2  -5    1.50    1.50
   4   2   5    2.96    0.91
   4   2   5    2.54    1.20
  -4   2  -5    1.40    1.03
  -6  -2  -5   45.89    3.96
  -6  -2  -5   46.87    3.07
   6  -2   5   50.31    3.90
  -6  -2  -5   45.02    3.54
  -6  -2  -5   52.71    4.15
  -6   2  -5   48.72    4.14
  -6   2  -5   48.64    3.48
   6   2   5   47.04    2.50
   6   2   5   48.70    3.62
  -8  -2  -5   26.24    4.00
   8  -2   5   26.80    3.44
  -8  -2  -5   27.98    3.40
  -8  -2  -5   23.69    3.57
  -8   2  -5   23.85    3.46
  -8   2  -5   21.15    2.68
  -8   2  -5   18.10    3.01
   8   2   5   21.12    2.90
  10  -2   5  148.14    8.35
 -10  -2  -5  136.91    7.81
 -10  -2  -5  134.53    6.71
 -10  -2  -5  136.78    8.27
 -10   2  -5  142.54    7.44
  10   2   5  129.24    7.60
 -10   2  -5  133.68    8.33
 -10   2  -5  132.89    8.28
  12  -2   5   -2.18    2.21
 -12  -2  -5   -1.46    3.49
 -12  -2  -5   -3.45    2.94
 -12  -2  -5    2.10    1.93
  12  -2   5    3.30    3.65
 -12   2  -5    2.55    2.31
 -12   2  -5    2.69    2.49
 -12   2  -5    3.05    3.16
 -14  -2  -5   51.50    6.29
 -14  -2  -5   46.71    6.52
 -14  -2  -5   45.08    5.12
  14  -2   5   40.65    6.06
  14   2   5   44.34    6.32
 -14   2  -5   42.31    7.76
 -14   2  -5   48.89    6.49
 -14   2  -5   52.70    6.45
 -16  -2  -5   22.19    4.39
  16  -2   5   14.96    5.47
 -16  -2  -5   19.75    6.00
 -16   2  -5   18.59    5.45
 -16   2  -5   16.80    6.06
 -16   2  -5   21.38    6.02
  16   2   5   25.91    5.97
 -15  -3   5    5.27    3.05
 -15  -3   5    7.58    4.49
 -15  -3   5    6.88    4.62
  15  -3  -5    5.87    4.33
 -15  -3   5    5.34    4.10
  15  -3  -5    7.47    3.15
 -15   3   5   -3.33    3.71
 -15   3   5    1.93    4.78
 -15   3   5    0.90    2.63
  15   3  -5   -0.63    4.42
 -13  -3   5   86.70    7.56
 -13  -3   5   89.61    7.58
 -13  -3   5   87.75    6.67
 -13  -3   5   89.60    6.26
  13  -3  -5   87.75    8.29
  13  -3  -5   93.93    6.57
 -13   3   5   98.80    5.43
 -13   3   5   79.95    6.42
  13   3  -5   79.21    8.03
 -13   3   5   86.29    7.06
 -13   3   5   92.08    7.68
  11  -3  -5   57.59    4.74
 -11  -3   5   57.02    5.33
 -11  -3   5   63.41    4.93
 -11  -3   5   63.91    5.05
  11  -3  -5   57.36    5.49
 -11   3   5   56.95    5.24
 -11   3   5   48.92    4.97
  11   3  -5   58.09    5.35
 -11   3   5   65.33    3.74
 -11   3   5   64.05    5.25
  -9  -3   5   24.42    3.12
  -9  -3   5   23.05    3.25
  -9  -3   5   17.50    3.06
   9  -3  -5   27.66    3.84
   9  -3  -5   22.79    2.99
  -9  -3   5   21.03    3.22
   9   3  -5   27.50    3.88
  -9   3   5   30.23    3.82
  -9   3   5   28.76    3.56
  -9   3   5   20.37    2.29
  -9   3   5   15.57    2.81
  -7  -3   5    7.71    1.81
  -7  -3   5    4.39    1.92
   7  -3  -5    5.86    2.06
   7  -3  -5    5.26    1.67
  -7  -3   5    6.39    1.89
  -7   3   5    4.14    1.92
  -7   3   5    5.40    1.92
  -7   3   5    3.59    1.94
   7   3  -5    8.76    2.26
   5  -3  -5  197.59    9.49
   5  -3  -5  185.15    9.41
   5  -3  -5  190.07    8.98
  -5  -3   5  199.51    9.22
  -5  -3   5  198.64    9.10
  -5   3   5  189.75    9.25
  -5   3   5  189.22    9.23
   5   3  -5  183.65    9.14
  -5   3   5  191.35    9.06
  -3  -3   5  171.14    8.20
  -3  -3   5  158.78    8.04
   3  -3  -5  164.22    8.30
   3  -3  -5  162.38    8.05
   3  -3  -5  181.88    6.97
   3  -3  -5  164.72    8.28
  -3  -3   5  170.71    7.23
  -3   3   5  160.16    7.97
  -3   3   5  171.96    8.15
   3   3  -5  171.27    7.98
  -3   3   5  175.15    7.80
   1  -3  -5  231.21   10.26
   1  -3  -5  218.21   10.11
  -1  -3   5  206.18    9.93
   1  -3  -5  226.16   10.21
  -1  -3   5  219.90   10.01
  -1   3   5  221.82    9.34
  -1   3   5  211.61    9.78
  -1   3   5  222.84    9.96
   1   3  -5  226.33    9.74
   1   3  -5  223.86    8.98
   1  -3   5   54.45    3.64
  -1  -3  -5   49.38    3.70
   1  -3   5   49.71    3.44
  -1  -3  -5   51.25    3.35
  -1  -3  -5   51.11    3.24
   1  -3   5   49.19    2.83
  -1  -3  -5   52.15    3.63
  -1   3  -5   52.46    2.55
   1   3   5   51.15    3.26
  -1   3  -5   58.00    3.86
   1   3   5   52.55    2.42
   1   3   5   49.53    3.16
  -3  -3  -5  273.51   12.32
   3  -3   5  270.25   12.21
  -3  -3  -5  270.20   12.40
  -3  -3  -5  282.53   11.40
  -3  -3  -5  267.23   11.95
  -3   3  -5  261.84   12.26
   3   3   5  268.61   11.32
   3   3   5  258.99   11.57
  -5  -3  -5  122.40    5.53
  -5  -3  -5  103.97    6.39
   5  -3   5  110.43    6.36
  -5  -3  -5  102.23    6.16
   5   3   5  100.40    5.60
  -5   3  -5  107.39    5.81
  -5   3  -5  110.69    6.37
  -7  -3  -5   36.76    4.17
  -7  -3  -5   35.30    3.36
   7  -3   5   43.21    4.03
  -7  -3  -5   39.20    4.04
  -7   3  -5   32.33    3.93
  -7   3  -5   35.70    3.45
   7   3   5   46.48    3.53
   7   3   5   38.85    2.41
  -9  -3  -5    6.35    2.45
   9  -3   5    4.05    2.45
  -9  -3  -5    2.11    2.42
  -9  -3  -5    2.70    2.09
  -9   3  -5    5.36    2.37
   9   3   5    7.70    2.01
  -9   3  -5    2.39    2.49
  -9   3  -5    5.20    1.96
 -11  -3  -5   46.96    5.48
 -11  -3  -5   38.23    4.78
  11  -3   5   48.81    5.26
  11  -3   5   39.93    4.67
 -11   3  -5   52.89    5.62
  11   3   5   50.68    4.37
 -11   3  -5   48.62    4.65
 -11   3  -5   41.11    4.94
 -13  -3  -5   93.03    6.15
 -13  -3  -5   83.72    8.27
 -13   3  -5  101.24    7.81
 -13   3  -5   90.10    6.70
 -13   3  -5   94.33    8.30
 -15  -3  -5   36.92    6.50
  15  -3   5   36.24    6.01
 -15   3  -5   26.77    5.61
 -15   3  -5   28.52    5.86
 -15   3  -5   22.64    6.10
  15   3   5   32.08    6.07
  16  -4  -5  123.62    9.47
 -16  -4   5  120.25   10.45
  16  -4  -5  141.39   11.24
 -16  -4   5  133.73    8.70
 -16   4   5  123.33   11.20
  16   4  -5  128.13   11.29
 -16   4   5  130.95   10.63
 -16   4   5  121.05   10.23
 -14  -4   5   68.33    7.79
 -14  -4   5   74.69    6.11
 -14  -4   5   86.73    7.82
  14  -4  -5   67.54    8.08
  14  -4  -5   76.10    6.42
  14   4  -5   77.75    8.15
 -14   4   5   68.57    8.17
 -14   4   5   66.30   10.80
 -14   4   5   75.45    8.00
 -14   4   5   73.40    4.98
 -12  -4   5   -1.16    2.80
 -12  -4   5    0.93    2.19
  12  -4  -5   -0.74    2.41
  12  -4  -5    0.64    2.80
 -12  -4   5    0.47    2.19
 -12   4   5   -2.10    3.57
 -12   4   5    2.90    1.48
  12   4  -5   -1.71    2.57
 -12   4   5    1.84    2.30
 -12   4   5   -2.81    2.40
  10  -4  -5   90.09    5.80
 -10  -4   5   82.95    5.67
 -10  -4   5   81.65    6.03
 -10  -4   5   81.50    5.87
  10  -4  -5   82.72    6.19
 -10   4   5   73.82    6.03
 -10   4   5   83.30    6.27
 -10   4   5   91.33    6.05
  10   4  -5   89.73    6.30
  -8  -4   5   52.49    4.34
   8  -4  -5   42.65    4.36
   8  -4  -5   58.04    4.36
  -8  -4   5   47.36    4.34
  -8  -4   5   48.94    4.12
   8   4  -5   50.95    4.56
  -8   4   5   52.22    4.39
  -8   4   5   51.80    4.54
  -8   4   5   53.99    4.49
   6  -4  -5   75.07    5.23
  -6  -4   5   76.35    4.87
  -6  -4   5   75.98    5.07
  -6  -4   5   75.29    4.81
   6  -4  -5   72.76    5.18
   6  -4  -5   70.82    4.72
  -6   4   5   79.24    4.95
  -6   4   5   68.99    4.81
  -6   4   5   70.46    4.89
   6   4  -5   72.33    4.87
   4  -4  -5  167.83    8.60
  -4  -4   5  180.63    7.05
   4  -4  -5  164.58    8.71
   4  -4  -5  178.18    8.57
  -4  -4   5  183.33    8.42
  -4  -4   5  170.62    8.45
  -4   4   5  162.43    8.29
   4   4  -5  181.19    8.28
  -4   4   5  169.80    8.21
  -4   4   5  164.81    8.44
  -2  -4   5   61.47    4.10
  -2  -4   5   58.25    4.09
   2  -4  -5   61.02    4.17
   2  -4  -5   61.99    3.02
   2  -4  -5   62.04    4.14
   2  -4  -5   60.08    4.26
   2   4  -5   62.70    3.77
   2   4  -5   63.65    2.87
  -2   4   5   62.00    4.03
  -2   4   5   63.88    3.65
  -2   4   5   58.02    3.72
   0  -4  -5  429.60   17.59
   0  -4  -5  406.64   17.48
   0  -4  -5  386.55   16.52
   0  -4   5  390.77   17.21
   0  -4   5  382.11   17.12
   0   4   5  411.18   17.02
   0   4  -5  441.85   16.70
   0   4   5  391.94   16.70
   0   4   5  396.46   16.60
   2  -4   5  151.17    7.53
  -2  -4  -5  144.78    7.59
  -2  -4  -5  137.13    7.02
   2  -4   5  145.67    6.25
  -2  -4  -5  147.58    7.76
   2   4   5  147.21    5.98
   2   4   5  140.12    6.80
  -2   4  -5  142.55    7.62
   2   4   5  154.61    6.78
  -4  -4  -5   14.88    2.54
  -4  -4  -5   22.05    2.73
   4  -4   5   21.66    3.03
  -4  -4  -5   19.18    2.08
  -4  -4  -5   19.86    2.87
   4   4   5   19.32    1.92
   4   4   5   21.04    2.15
  -4   4  -5   20.87    2.56
  -4   4  -5   14.73    2.55
  -6  -4  -5  128.75    7.54
   6  -4   5  124.11    7.11
  -6  -4  -5  113.50    7.04
  -6  -4  -5  128.19    5.82
   6   4   5  131.59    5.44
   6   4   5  117.66    6.46
  -6   4  -5  121.96    7.24
   6   4   5  116.40    6.21
  -6   4  -5  121.29    6.70
  -8  -4  -5   92.99    6.24
   8  -4   5   92.97    6.46
  -8  -4  -5  100.15    5.30
  -8  -4  -5  100.53    6.82
  -8   4  -5   87.77    6.49
  -8   4  -5   89.97    5.84
   8   4   5   83.13    5.36
  10  -4   5   47.15    5.07
  10  -4   5   40.85    4.76
 -10  -4  -5   43.84    5.07
 -10  -4  -5   58.75    5.54
 -10  -4  -5   52.33    5.84
  10   4   5   51.10    4.41
 -10   4  -5   39.87    4.61
 -10   4  -5   53.27    5.40
 -10   4  -5   46.47    4.71
  12  -4   5    9.59    3.31
 -12  -4  -5    8.50    4.28
 -12   4  -5   12.09    3.70
 -12   4  -5    8.88    2.85
  12   4   5    9.22    3.91
 -14  -4  -5    1.50    4.06
  14  -4   5   -1.90    4.18
  14   4   5    2.14    4.27
 -14   4  -5    5.01    3.81
 -14   4  -5   -0.17    3.11
 -14   4  -5    9.38    5.03
 -15  -5   5   -2.62    4.19
  15  -5  -5    0.42    4.68
 -15  -5   5    2.64    3.46
 -15   5   5    5.84    4.26
  15   5  -5   -3.06    4.59
 -15   5   5   -6.10    4.22
 -15   5   5    4.58    4.64
  13  -5  -5   70.58    7.85
 -13  -5   5   65.46    7.21
 -13  -5   5   58.09    7.25
  13  -5  -5   68.94    5.97
  13   5  -5   46.33    6.60
 -13   5   5   54.11    7.26
 -13   5   5   63.56    7.64
 -13   5   5   63.91    7.29
  11  -5  -5  222.30   11.68
  11  -5  -5  239.65   12.32
 -11  -5   5  237.87   11.79
 -11  -5   5  230.44   11.43
 -11  -5   5  225.73   12.06
  11   5  -5  231.00   12.17
 -11   5   5  225.25   12.32
 -11   5   5  225.32   11.86
 -11   5   5  242.36   12.47
  -9  -5   5   47.23    4.73
  -9  -5   5   41.50    4.10
   9  -5  -5   39.81    4.33
  -9  -5   5   38.13    4.24
   9  -5  -5   45.60    4.75
  -9   5   5   39.48    4.07
   9   5  -5   43.50    4.30
  -9   5   5   42.91    4.36
  -9   5   5   40.91    4.28
  -7  -5   5   29.08    3.38
   7  -5  -5   32.72    3.93
   7  -5  -5   31.09    3.93
   7  -5  -5   36.58    3.62
  -7  -5   5   29.59    3.68
  -7  -5   5   36.96    3.83
  -7   5   5   35.09    3.71
  -7   5   5   29.38    3.68
  -7   5   5   32.31    3.67
   7   5  -5   37.40    3.72
  -5  -5   5   80.42    5.30
  -5  -5   5   85.43    5.34
   5  -5  -5   91.02    5.59
   5  -5  -5   85.80    5.60
   5  -5  -5   89.55    5.86
  -5   5   5   80.70    5.17
   5   5  -5   98.57    5.29
  -5   5   5   83.07    5.54
  -5   5   5   83.67    5.28
  -3  -5   5  325.01   14.83
   3  -5  -5  340.20   14.85
   3  -5  -5  338.30   15.19
  -3  -5   5  333.41   14.58
   3  -5  -5  334.37   15.00
  -3   5   5  344.48   14.57
  -3   5   5  345.74   14.46
   3   5  -5  338.15   13.50
  -3   5   5  328.42   14.82
   3   5  -5  323.98   14.26
   1  -5  -5   30.34    3.34
  -1  -5   5   32.54    3.34
  -1  -5   5   31.32    3.07
   1  -5  -5   25.71    2.97
   1  -5  -5   33.80    2.31
   1   5  -5   30.55    2.46
  -1   5   5   31.11    2.89
  -1   5   5   34.09    2.59
  -1   5   5   29.62    2.50
  -1  -5  -5   10.48    2.19
  -1  -5  -5   17.34    2.20
  -1  -5  -5   14.20    2.49
   1  -5   5   12.92    2.30
   1   5   5   13.96    1.73
   1   5   5   13.05    2.03
   1   5   5   14.91    1.61
  -1   5  -5   16.52    2.48
  -3  -5  -5   52.48    4.38
  -3  -5  -5   56.46    3.97
  -3  -5  -5   53.18    4.37
   3  -5   5   50.84    3.30
   3  -5   5   56.98    4.30
   3   5   5   54.86    3.22
   3   5   5   49.94    3.44
   3   5   5   56.08    2.65
  -3   5  -5   47.17    4.01
  -5  -5  -5  161.78    8.87
   5  -5   5  149.67    8.54
  -5  -5  -5  150.63    8.40
  -5  -5  -5  158.76    8.90
   5   5   5  172.47    6.72
   5   5   5  160.69    7.31
  -5   5  -5  165.50    8.42
   5   5   5  168.23    7.56
   5   5   5  167.88    6.70
  -5   5  -5  165.02    8.90
   7  -5   5  251.65   12.04
  -7  -5  -5  246.45   12.08
  -7  -5  -5  236.45   12.21
   7   5   5  240.16    9.72
  -7   5  -5  229.76   11.49
   7   5   5  229.84   10.66
   7   5   5  238.35   10.92
  -7   5  -5  234.12   12.06
   9  -5   5   17.94    3.32
  -9  -5  -5   20.06    3.59
  -9  -5  -5   22.39    3.71
   9  -5   5   23.95    3.35
  -9   5  -5   16.44    3.35
   9   5   5   20.37    2.74
  -9   5  -5   20.13    3.29
  11  -5   5  106.67    8.07
  11  -5   5  107.21    7.43
 -11  -5  -5  125.14    9.17
 -11   5  -5  121.05    8.44
 -11   5  -5  135.36    7.98
 -11   5  -5  119.87    7.90
  11   5   5  126.81    7.16
  13  -5   5   78.34    6.96
 -13  -5  -5   77.14    8.13
 -13   5  -5   65.60    7.49
 -13   5  -5   69.49    8.07
  15  -5   5   46.71    7.02
 -15  -5  -5   34.32    6.35
 -15   5  -5   40.23    6.33
 -15   5  -5   42.27    6.39
 -15   5  -5   37.79    7.37
 -15   5  -5   48.86    5.41
  15   5   5   27.32    6.65
 -14  -6   5   66.04    6.67
 -14  -6   5   83.96    8.38
  14  -6  -5   85.98    8.89
  14  -6  -5   62.91    8.20
 -14   6   5   88.72    8.80
  14   6  -5   81.55    8.90
 -14   6   5   84.06    8.48
 -14   6   5   78.11    8.47
 -12  -6   5   20.74    3.50
  12  -6  -5   15.92    4.15
  12  -6  -5   15.31    3.27
 -12  -6   5   24.17    4.48
 -12  -6   5   17.75    4.68
 -12   6   5   23.24    4.62
 -12   6   5   18.00    4.50
 -12   6   5   24.84    4.99
  10  -6  -5   91.79    6.87
 -10  -6   5   92.51    6.16
 -10  -6   5   95.47    6.66
 -10  -6   5   84.87    6.45
  10  -6  -5   89.22    6.53
 -10   6   5   94.92    6.83
 -10   6   5   90.41    6.48
 -10   6   5   91.66    6.72
  10   6  -5   93.77    6.60
  -8  -6   5  243.75   11.95
   8  -6  -5  242.73   12.34
  -8  -6   5  264.82   12.66
   8  -6  -5  269.13   12.62
  -8  -6   5  243.19   11.93
   8  -6  -5  270.67   12.94
   8   6  -5  232.61   11.97
  -8   6   5  237.31   12.28
  -8   6   5  238.68   12.29
  -8   6   5  244.73   12.31
  -6  -6   5   76.90    5.37
  -6  -6   5   85.78    5.62
   6  -6  -5   85.60    6.02
   6  -6  -5   85.15    5.69
   6  -6  -5   84.75    5.81
  -6   6   5   79.68    5.43
  -6   6   5   73.55    5.29
   6   6  -5   82.21    5.32
  -6   6   5   91.87    5.89
  -4  -6   5    0.54    1.78
   4  -6  -5    1.68    1.73
   4  -6  -5   -2.13    1.73
  -4  -6   5    0.85    1.53
   4  -6  -5    2.54    1.85
  -4   6   5    2.07    1.48
  -4   6   5    2.70    1.77
   4   6  -5    0.99    1.39
  -4   6   5    1.83    1.52
  -2  -6   5  135.77    6.73
  -2  -6   5  138.77    7.19
   2  -6  -5  147.17    6.15
   2  -6  -5  140.57    7.71
   2  -6  -5  135.95    7.72
   2  -6  -5  136.87    7.31
  -2   6   5  140.61    6.95
  -2   6   5  134.08    7.35
   2   6  -5  139.12    6.52
  -2   6   5  134.34    6.81
   0  -6  -5  148.22    8.18
   0  -6  -5  161.18    8.40
   0  -6  -5  160.30    6.70
   0  -6   5  152.64    7.87
   0  -6  -5  136.54    7.07
   0   6   5  160.22    7.84
   0   6   5  148.95    7.12
   0   6   5  162.26    7.22
   0   6  -5  154.43    8.02
  -2  -6  -5  114.58    6.74
   2  -6   5  113.85    6.47
  -2  -6  -5  108.42    5.92
  -2  -6  -5  114.67    6.84
   2   6   5  112.13    5.38
   2   6   5  107.76    5.24
   2   6   5  111.64    5.93
  -2   6  -5  110.09    6.57
  -4  -6  -5   33.52    3.93
  -4  -6  -5   27.47    3.24
  -4  -6  -5   31.70    3.99
   4  -6   5   32.43    3.69
   4   6   5   28.70    2.21
  -4   6  -5   30.40    3.75
   4   6   5   31.04    2.75
   4   6   5   31.41    2.42
  -6  -6  -5   37.15    4.38
  -6  -6  -5   38.45    4.03
  -6  -6  -5   38.03    4.15
   6  -6   5   39.65    4.44
   6   6   5   37.45    2.88
   6   6   5   41.87    3.15
  -6   6  -5   27.12    3.97
  -6   6  -5   45.58    4.24
   6   6   5   36.46    2.83
   8  -6   5  287.05   14.53
   8  -6   5  285.55   13.52
  -8  -6  -5  307.61   15.16
  -8  -6  -5  294.96   14.66
  -8   6  -5  310.48   14.41
  -8   6  -5  285.93   14.83
   8   6   5  318.29   12.14
   8   6   5  299.64   13.20
   8   6   5  300.56   13.41
   8   6   5  314.13   12.04
  10  -6   5  110.05    6.83
 -10  -6  -5  102.51    8.56
  10  -6   5  103.46    7.51
  10   6   5  104.22    6.00
 -10   6  -5   81.76    6.73
 -10   6  -5  103.68    7.69
 -12  -6  -5   -0.62    3.29
  12  -6   5    0.32    2.98
 -12   6  -5    3.52    4.39
 -12   6  -5    5.10    3.67
 -12   6  -5   -4.58    5.63
 -14  -6  -5   49.78    7.39
  14  -6   5   42.92    6.59
 -14   6  -5   46.11    6.55
 -14   6  -5   43.42    6.30
 -14   6  -5   40.48    7.43
  14   6   5   44.47    7.08
 -13  -7   5   11.61    4.51
  13  -7  -5   13.60    4.79
  13  -7  -5   15.41    5.21
  13   7  -5   20.15    5.10
 -13   7   5   17.13    5.13
 -13   7   5   15.26    4.95
 -13   7   5   15.54    5.22
 -11  -7   5  110.17    7.64
  11  -7  -5  130.80    9.68
  11  -7  -5  140.74    8.73
  11  -7  -5  130.00    8.49
 -11  -7   5  138.67    9.54
 -11   7   5  121.12    9.26
 -11   7   5  133.90    9.20
  11   7  -5  126.38    8.41
 -11   7   5  125.93    9.31
   9  -7  -5  111.30    7.73
  -9  -7   5  114.77    7.15
  -9  -7   5  119.05    7.40
   9  -7  -5  114.14    7.87
   9  -7  -5  127.69    7.71
  -9  -7   5  120.39    7.80
  -9   7   5  112.03    7.59
   9   7  -5  118.35    7.43
  -9   7   5  115.98    7.57
  -9   7   5  115.17    7.56
  -7  -7   5    2.99    2.22
   7  -7  -5    1.20    1.97
   7  -7  -5    1.11    2.10
  -7  -7   5   -0.89    1.65
  -7  -7   5   -2.97    2.24
   7  -7  -5    0.81    2.19
   7   7  -5    1.11    1.98
  -7   7   5    2.99    2.12
  -7   7   5   -1.63    1.70
  -7   7   5   -1.66    1.74
   5  -7  -5  278.54   13.42
   5  -7  -5  282.77   14.11
  -5  -7   5  309.00   12.32
   5  -7  -5  276.10   14.01
  -5  -7   5  305.22   13.02
  -5   7   5  292.35   13.36
  -5   7   5  277.55   13.46
   5   7  -5  294.35   12.90
  -5   7   5  280.66   13.81
   3  -7  -5   89.83    5.61
   3  -7  -5   87.56    6.17
  -3  -7   5   91.32    5.00
   3  -7  -5   96.32    6.25
   3   7  -5   95.00    3.87
   3   7  -5   80.22    4.74
  -3   7   5   86.63    5.45
  -3   7   5   86.95    5.87
  -3   7   5   87.25    5.23
  -1  -7   5   31.11    3.37
   1  -7  -5   32.62    3.71
  -1  -7   5   34.46    3.64
   1  -7  -5   32.12    3.81
   1  -7  -5   40.13    2.98
  -1   7   5   37.11    3.17
  -1   7   5   34.33    3.74
  -1   7   5   36.16    2.88
   1   7  -5   37.95    2.52
  -1  -7  -5    1.42    1.85
   1  -7   5    1.79    1.94
   1  -7   5    1.81    1.82
  -1  -7  -5   -0.33    1.44
  -1  -7  -5   -0.13    1.80
   1   7   5    1.57    1.06
  -1   7  -5   -0.69    1.54
   1   7   5   -0.38    1.59
   1   7   5   -1.23    1.14
  -3  -7  -5   54.40    4.78
   3  -7   5   61.94    4.82
  -3  -7  -5   57.02    4.33
  -3  -7  -5   57.34    5.02
   3   7   5   53.32    3.27
   3   7   5   62.48    3.59
  -3   7  -5   54.38    4.72
   3   7   5   68.70    4.26
  -5  -7  -5  122.96    7.83
   5  -7   5  124.46    7.46
  -5  -7  -5  114.50    7.61
  -5  -7  -5  118.08    7.13
  -5   7  -5  118.69    7.61
   5   7   5  123.22    5.79
   5   7   5  134.13    5.90
   5   7   5  128.13    6.28
  -5   7  -5  109.25    7.30
  -7  -7  -5  144.46    8.93
   7  -7   5  154.00    8.94
  -7  -7  -5  151.09    8.52
   7  -7   5  155.93    7.49
  -7  -7  -5  138.26    9.06
  -7   7  -5  158.16    8.90
   7   7   5  144.12    7.08
   7   7   5  151.93    6.95
   7   7   5  148.86    7.34
  -7   7  -5  151.07    9.06
   9  -7   5    1.38    2.15
  -9  -7  -5    4.11    2.82
   9  -7   5   -1.11    2.60
  -9  -7  -5    6.63    6.04
  -9   7  -5   -5.47    2.28
   9   7   5    0.53    1.66
  -9   7  -5    3.28    2.76
 -11  -7  -5  116.23    9.16
  11  -7   5  104.92    7.27
 -11  -7  -5  119.50    9.60
 -11   7  -5  100.19    8.88
 -11   7  -5  123.01    9.95
  13  -7   5  108.21    8.34
 -13  -7  -5  108.34    9.70
 -13   7  -5  106.41    9.66
 -13   7  -5  107.73   10.32
 -13   7  -5  102.19    9.46
 -14  -8   5   38.45    6.94
  14  -8  -5   43.25    7.18
  14  -8  -5   34.32    6.35
  14  -8  -5   38.80    6.93
 -14   8   5   35.08    6.76
 -14   8   5   38.92    6.58
 -14   8   5   35.62    6.68
  14   8  -5   39.74    6.39
 -12  -8   5   -1.47    4.01
  12  -8  -5    1.56    4.19
  12  -8  -5    5.89    4.01
  12  -8  -5    2.06    4.49
 -12   8   5    1.80    3.81
  12   8  -5    1.92    4.33
 -12   8   5    7.46    4.13
 -12   8   5    7.15    4.24
  10  -8  -5   -5.32    3.39
  10  -8  -5    2.46    2.97
 -10  -8   5    3.48    3.56
  10  -8  -5   -2.15    5.63
 -10   8   5   -0.07    3.05
 -10   8   5   -2.51    3.13
  10   8  -5    0.59    2.54
 -10   8   5   -2.75    3.17
   8  -8  -5   33.91    4.88
  -8  -8   5   37.05    4.68
   8  -8  -5   35.79    4.70
   8  -8  -5   30.72    4.34
  -8   8   5   29.40    3.97
  -8   8   5   36.67    4.78
   8   8  -5   36.21    4.24
  -8   8   5   32.28    4.51
   6  -8  -5  127.31    8.08
   6  -8  -5  127.87    8.28
  -6  -8   5  143.21    6.32
  -6  -8   5  137.48    7.40
   6  -8  -5  129.67    7.75
  -6   8   5  118.08    7.71
  -6   8   5  128.91    7.86
  -6   8   5  132.80    7.71
   6   8  -5  137.96    7.29
   4  -8  -5   16.58    3.14
   4  -8  -5   13.98    2.73
  -4  -8   5   22.85    2.98
  -4  -8   5   13.74    2.53
   4  -8  -5   18.74    3.58
  -4   8   5   14.22    2.60
  -4   8   5   16.99    2.62
   4   8  -5   17.74    2.34
  -4   8   5   13.51    3.10
  -2  -8   5   10.37    2.18
   2  -8  -5   13.85    2.93
  -2  -8   5    9.98    2.68
   2  -8  -5   12.08    1.87
   2  -8  -5    9.95    2.78
  -2   8   5   10.89    1.99
  -2   8   5    8.21    2.43
   2   8  -5   13.84    1.66
  -2   8   5    9.11    2.03
   0  -8  -5  102.91    6.83
   0  -8   5   99.55    4.74
   0  -8  -5  104.71    5.77
   0  -8   5  115.15    6.39
   0  -8   5  105.01    6.34
   0  -8  -5  110.77    7.15
   0   8   5   99.00    5.37
   0   8   5  109.05    6.42
   0   8  -5  100.46    6.42
   0   8   5  108.03    5.92
  -2  -8  -5  285.09   13.25
  -2  -8  -5  237.53   12.80
   2  -8   5  267.10   12.40
   2  -8   5  255.42   12.70
  -2  -8  -5  263.91   12.05
   2   8   5  264.17   11.64
   2   8   5  265.64   11.12
   2   8   5  254.88   12.19
  -2   8  -5  255.80   12.67
   4  -8   5    7.57    1.50
   4  -8   5    8.70    1.88
   4  -8   5    8.29    1.74
  -4  -8  -5    5.06    2.36
  -4  -8  -5    6.97    2.32
   4  -8   5    1.85    2.37
  -4  -8  -5    6.78    2.65
   4  -8   5    5.58    1.38
   4   8   5    7.89    1.74
  -4   8  -5    6.66    2.33
   4   8   5    4.57    1.22
  -4   8  -5    7.26    2.72
   4   8   5    7.32    2.12
   6  -8   5   83.36    4.84
  -6  -8  -5   92.86    6.83
   6  -8   5   94.60    6.78
  -6  -8  -5   84.20    6.13
  -6  -8  -5   90.26    6.53
  -6   8  -5   75.38    6.37
   6   8   5   89.36    4.57
   6   8   5   86.44    5.08
  -6   8  -5   92.25    6.58
  -8  -8  -5   14.53    5.26
   8  -8   5   14.46    3.67
   8  -8   5   21.13    2.91
  -8  -8  -5   13.75    3.21
  -8  -8  -5   20.06    3.62
  -8   8  -5    9.17    4.52
   8   8   5   15.58    2.19
   8   8   5   18.04    2.26
   8   8   5   21.12    2.46
  -8   8  -5   13.00    2.97
 -10  -8  -5   19.33    4.52
 -10  -8  -5   13.74    4.55
  10  -8   5   19.59    3.36
 -10   8  -5   17.63    4.83
 -10   8  -5   16.10    4.46
 -12  -8  -5    9.52    4.49
  12  -8   5   18.81    4.00
 -12   8  -5   16.27    5.70
 -12   8  -5   16.82    5.15
 -12   8  -5   21.29    5.28
 -13  -9   5   14.84    5.22
  13  -9  -5    8.69    5.25
  13  -9  -5   17.54    5.86
  13  -9  -5   13.59    5.48
 -13   9   5   19.95    5.19
 -13   9   5   16.98    5.11
 -13   9   5   13.46    5.22
  13   9  -5   12.64    5.28
  11  -9  -5    2.86    4.21
  11  -9  -5    5.45    4.77
  11  -9  -5   -2.82    3.30
 -11  -9   5    7.16    4.68
 -11   9   5    0.85    3.86
  11   9  -5   -3.91    2.99
 -11   9   5    1.54    4.16
 -11   9   5    3.47    3.80
   9  -9  -5   25.60    5.26
   9  -9  -5   32.13    5.52
   9  -9  -5   28.92    4.13
  -9  -9   5   21.40    4.76
  -9   9   5   22.54    4.85
   9   9  -5   37.51    4.45
  -9   9   5   31.43    5.21
  -9   9   5   25.03    4.41
  -7  -9   5    1.34    1.89
   7  -9  -5   -2.37    2.31
   7  -9  -5   -3.98    2.81
   7  -9  -5    0.45    2.61
  -7   9   5   -1.62    2.77
  -7   9   5   -2.27    2.29
   7   9  -5   -0.56    2.15
  -5  -9   5   42.48    3.70
   5  -9  -5   38.85    4.41
   5  -9  -5   46.62    5.08
   5  -9  -5   48.81    5.01
   5   9  -5   40.74    3.78
  -5   9   5   43.32    4.71
  -5   9   5   39.49    3.98
  -5   9   5   36.60    4.36
   3  -9  -5   59.07    5.42
  -3  -9   5   53.22    4.81
   3  -9  -5   51.43    5.22
  -3  -9   5   53.66    4.44
  -3   9   5   52.10    4.64
  -3   9   5   54.77    4.85
   3   9  -5   55.81    3.48
  -3   9   5   55.59    4.21
   1  -9  -5    3.08    2.08
   1  -9  -5    5.99    1.97
  -1  -9   5    3.81    2.12
   1  -9  -5    0.42    2.29
  -1  -9   5    7.74    2.66
  -1   9   5    2.14    1.93
  -1   9   5    0.53    1.72
   1   9  -5    4.59    2.03
  -1   9   5    5.33    1.46
   1  -9   5   -2.64    2.33
  -1  -9  -5   -0.94    2.17
  -1  -9  -5    4.63    2.26
   1  -9   5    4.85    2.37
  -1  -9  -5    2.14    1.88
  -1   9  -5   -2.16    1.78
   1   9   5   -0.07    1.65
   1   9   5    0.67    1.22
   1   9   5   -0.65    1.72
  -3  -9  -5   52.06    4.65
  -3  -9  -5   59.11    5.18
   3  -9   5   53.43    5.05
  -3  -9  -5   56.50    5.20
   3  -9   5   44.21    4.92
   3   9   5   49.59    3.15
  -3   9  -5   50.28    4.84
   3   9   5   52.09    4.09
   3   9   5   57.24    4.65
  -5  -9  -5   67.90    5.50
   5  -9   5   63.84    5.83
  -5  -9  -5   63.76    5.85
   5  -9   5   59.20    4.04
   5  -9   5   63.70    5.69
  -5  -9  -5   63.65    5.58
  -5   9  -5   65.55    5.82
   5   9   5   61.05    3.44
   5   9   5   61.04    4.30
  -5   9  -5   65.73    5.63
   5   9   5   65.85    4.84
   7  -9   5    6.46    2.06
  -7  -9  -5   -0.92    2.73
   7  -9   5   -0.91    4.59
  -7  -9  -5    3.04    2.47
  -7  -9  -5    6.39    4.00
   7   9   5    7.71    2.22
  -7   9  -5    8.11    6.46
   7   9   5    7.62    1.53
  -7   9  -5   -0.60    3.30
  -9  -9  -5    6.28    4.88
   9  -9   5    1.63    2.47
  -9  -9  -5   -2.11    3.41
  -9   9  -5   -1.70    3.66
   9   9   5    4.78    1.97
  -9   9  -5   -3.86    3.21
  11  -9   5   11.25    3.47
 -11  -9  -5   10.97    5.13
 -11  -9  -5    8.74    4.66
 -11   9  -5   18.29    5.87
 -11   9  -5   17.52    5.50
  12 -10  -5    3.26    4.94
  12 -10  -5    0.03    5.21
  12 -10  -5    4.86    5.38
 -12 -10   5   10.37    5.57
  12  10  -5   -1.05    4.51
 -12  10   5    2.60    4.53
 -12  10   5   -4.54    3.83
 -12  10   5    6.25    4.95
  10 -10  -5    4.65    4.60
  10 -10  -5   14.16    3.88
 -10 -10   5    7.04    4.55
  10 -10  -5   10.52    4.89
 -10  10   5   14.38    4.56
  10  10  -5   10.06    3.48
 -10  10   5    1.88    3.66
 -10  10   5   10.67    4.66
   8 -10  -5    1.09    2.77
   8 -10  -5   -0.40    3.48
   8 -10  -5    3.32    3.88
   8  10  -5    1.22    2.62
  -8  10   5    1.75    3.44
  -8  10   5   -0.89    2.94
  -8  10   5   -0.36    3.69
   6 -10  -5    0.36    3.83
  -6 -10   5    4.83    2.29
  -6  10   5    7.37    3.26
  -6  10   5    3.67    2.99
  -6  10   5    4.34    3.94
   6  10  -5    4.54    2.28
   4 -10  -5   -2.61    2.65
  -4 -10   5   -1.20    2.05
  -4  10   5   -3.67    2.39
  -4  10   5    0.33    1.70
   4  10  -5    1.89    1.74
  -4  10   5   -1.19    2.20
   2 -10  -5   12.86    3.45
  -2 -10   5   15.60    3.19
   2 -10  -5    8.60    2.69
  -2 -10   5   16.98    2.89
   2  10  -5   10.27    2.58
  -2  10   5    6.92    2.54
  -2  10   5   14.24    3.11
  -2  10   5   13.00    2.34
   0 -10  -5   31.22    4.27
   0 -10  -5   29.10    4.64
   0 -10  -5   31.83    3.72
   0 -10   5   27.00    3.79
   0 -10   5   35.08    4.39
   0  10  -5   34.61    3.87
   0  10   5   30.46    3.64
   0  10   5   37.19    4.27
   0  10   5   31.63    2.98
   2 -10   5    1.84    2.32
  -2 -10  -5   -1.11    2.13
   2 -10   5    0.83    2.75
  -2 -10  -5    3.96    2.66
  -2 -10  -5   -1.45    2.22
   2  10   5    4.15    2.19
   2  10   5    2.26    2.17
  -2  10  -5    2.84    2.00
   2  10   5    0.88    1.28
  -4 -10  -5    5.73    3.16
  -4 -10  -5   -2.08    2.31
   4 -10   5   -1.48    2.78
   4 -10   5    6.37    2.79
  -4 -10  -5   -2.81    2.23
   4  10   5    3.96    2.49
  -4  10  -5    3.43    3.99
  -4  10  -5    6.93    3.10
   4  10   5    2.51    2.01
   4  10   5    5.09    1.26
   6 -10   5    2.89    3.82
  -6 -10  -5    5.09    2.77
   6 -10   5    3.45    2.29
  -6 -10  -5    5.56    4.24
  -6 -10  -5   -0.89    3.44
  -6  10  -5    8.74    3.54
   6  10   5    3.97    1.26
   6  10   5    6.27    2.56
   6  10   5    3.30    2.03
  -6  10  -5    8.30    4.27
  -8 -10  -5    1.99    4.07
  -8 -10  -5   -2.46    3.82
  -8 -10  -5    1.65    3.87
   8 -10   5    2.03    4.51
   8 -10   5    1.16    2.90
   8  10   5   -6.31    2.32
  -8  10  -5   -7.03    3.53
  -8  10  -5    0.74    3.53
 -10 -10  -5    3.46    4.50
  10 -10   5   -3.87    3.60
 -10 -10  -5    3.60    4.70
 -10  10  -5    8.45    4.59
 -10  10  -5   -3.70    3.92
   9 -11  -5   -5.04    3.30
   9 -11  -5   -2.34    4.21
   9 -11  -5    8.12    4.78
  -9  11   5    1.22    4.07
  -9  11   5    0.29    3.94
   9  11  -5    0.16    3.06
  -9  11   5   -2.56    3.43
   7 -11  -5    5.46    4.06
   7 -11  -5   13.68    4.88
   7 -11  -5    9.45    3.42
  -7 -11   5    7.91    3.05
  -7  11   5    6.57    4.01
   7  11  -5   13.00    3.09
  -7  11   5    8.33    4.29
  -7  11   5   12.64    3.96
  -5 -11   5    6.03    2.83
   5 -11  -5   -0.47    3.85
   5 -11  -5    4.55    3.62
  -5  11   5    0.05    2.99
   5  11  -5    2.02    2.12
  -5  11   5    3.87    3.57
  -5  11   5   -0.77    3.05
  -3 -11   5   18.88    3.15
   3 -11  -5    7.78    4.24
  -3  11   5   10.67    2.25
  -3  11   5    1.59    3.47
  -3  11   5   11.52    2.83
   1 -11  -5   26.89    5.29
  -1 -11   5   29.62    4.07
   1 -11  -5   36.16    5.09
  -1  11   5   35.94    3.39
  -1  11   5   32.80    4.46
  -1  11   5   30.88    4.11
   1  11  -5   27.94    6.51
   1 -11   5   -2.43    2.35
  -1 -11  -5    1.50    2.97
  -1 -11  -5    1.38    3.47
  -1 -11  -5    1.00    2.30
   1  11   5    6.90    2.64
  -1  11  -5   -1.97    2.82
   1  11   5    0.62    2.33
   1  11   5    1.24    1.56
   3 -11   5  113.56    7.71
  -3 -11  -5   94.08    8.29
  -3 -11  -5   90.93    8.32
  -3 -11  -5   98.57    6.75
   3  11   5   93.51    6.46
   3  11   5   99.15    4.85
   3  11   5   97.14    6.88
  -3  11  -5   98.62    8.39
  -3  11  -5   89.11    7.74
   5 -11   5    1.48    4.06
  -5 -11  -5   -0.41    2.64
  -5 -11  -5    4.33    4.04
  -5 -11  -5    0.95    4.09
  -5  11  -5   -1.50    3.07
  -5  11  -5    1.18    3.60
   5  11   5    5.52    2.93
   5  11   5    1.45    2.34
  -7 -11  -5   12.15    5.05
   7 -11   5   14.45    5.34
   7 -11   5   23.48    3.79
  -7 -11  -5   18.21    5.24
  -7 -11  -5   17.03    4.92
  -7  11  -5   15.33    4.55
   7  11   5   17.16    3.04
   7  11   5   19.53    3.40
  -7  11  -5   17.14    5.35
   9 -11   5   -3.22    3.37
   9 -11   5   -0.04    4.51
  -9 -11  -5   -7.15    4.38
  -9 -11  -5    0.94    4.11
  -9 -11  -5   -1.53    4.80
  -9  11  -5   -1.61    4.68
   9  11   5    2.64    2.77
  -9  11  -5   -0.20    4.03
   8 -12  -5   41.75    6.63
   8 -12  -5   39.98    7.23
  -8  12   5   46.66    5.99
   8  12  -5   50.14    5.51
  -8  12   5   32.65    6.11
  -8  12   5   26.32    5.85
   6 -12  -5   68.25    8.16
  -6 -12   5   44.28    5.72
   6 -12  -5   40.89    6.41
  -6  12   5   40.23    6.30
  -6  12   5   58.80    6.59
   6  12  -5   52.40    4.61
  -6  12   5   43.89    6.62
   4 -12  -5   -0.18    3.73
   4 -12  -5    4.31    4.07
  -4 -12   5    0.10    2.97
   4  12  -5    2.21    3.05
  -4  12   5    7.33    4.33
  -4  12   5   -1.04    2.80
  -4  12   5    4.27    4.12
   2 -12  -5    6.47    4.50
  -2 -12   5    5.34    3.11
   2 -12  -5   11.68    4.84
  -2  12   5    5.29    4.11
  -2  12   5   10.18    3.05
  -2  12   5   12.89    2.88
   2  12  -5    6.19    3.40
   0 -12  -5   10.80    4.61
   0 -12   5    9.06    3.42
   0 -12  -5   15.89    4.58
   0  12   5    9.67    2.97
   0  12  -5   12.43    3.69
   0  12   5   14.38    4.59
   0  12   5   14.93    2.43
  -2 -12  -5   16.41    5.45
  -2 -12  -5   24.36    5.39
  -2 -12  -5   23.38    3.88
  -2  12  -5   23.36    4.55
   2  12   5   24.12    4.01
   2  12   5   25.27    4.94
   2  12   5   23.27    2.86
  -4 -12  -5    3.96    4.35
  -4 -12  -5    3.69    4.14
   4 -12   5    3.22    4.02
  -4 -12  -5    9.36    3.50
   4  12   5   -0.65    2.78
   4  12   5    2.30    2.81
  -4  12  -5    4.13    4.13
  -4  12  -5    3.21    3.62
  -6 -12  -5   -4.05    3.69
   6 -12   5   -1.57    4.22
  -6 -12  -5    5.40    4.77
  -6 -12  -5    8.99    4.91
   6  12   5    0.80    2.86
  -6  12  -5    6.21    4.12
   6  12   5   10.50    3.32
  -6  12  -5    1.34    4.64
   8 -12   5    4.80    4.97
  -8 -12  -5    9.54    5.10
  -8 -12  -5   14.47    5.12
  -8 -12  -5   12.83    5.12
   8  12   5    9.98    3.28
   8  12   5   13.45    3.65
  -8  12  -5   17.09    5.63
  -8  12  -5   10.53    4.55
  -5 -13   5   49.43    6.14
   5 -13  -5   38.08    6.75
   5 -13  -5   35.69    6.60
  -5  13   5   33.88    6.01
  -5  13   5   35.60    5.10
  -5  13   5   35.10    5.99
   5  13  -5   46.50    5.53
   3 -13  -5   14.10    5.21
   3 -13  -5   36.04    6.41
  -3 -13   5   28.56    4.61
  -3  13   5   32.92    5.65
  -3  13   5   26.38    4.07
   3  13  -5   27.34    4.69
  -3  13   5   27.68    5.61
   1 -13  -5   15.65    5.24
   1 -13  -5   12.57    4.85
   1  13  -5   11.10    4.14
  -1  13   5   12.79    3.29
  -1  13   5    6.93    4.58
   1 -13   5    6.53    4.56
  -1 -13  -5   -7.40    3.00
  -1 -13  -5    4.56    4.59
  -1 -13  -5    7.84    5.07
  -1  13  -5    0.57    3.60
   1  13   5    0.36    1.83
   1  13   5    2.69    2.95
   1  13   5    2.05    3.83
  -3 -13  -5   41.98    5.57
   3 -13   5   31.77    6.44
  -3 -13  -5   41.67    6.69
  -3 -13  -5   46.79    7.34
  -3  13  -5   33.24    6.20
   3  13   5   40.28    4.97
  -3  13  -5   38.03    5.76
   3  13   5   43.06    6.11
  -5 -13  -5   50.64    7.31
  -5 -13  -5   39.15    7.38
  -5 -13  -5   56.49    6.99
   5 -13   5   48.59    7.22
  -5  13  -5   43.20    6.75
  -5  13  -5   51.07    7.35
   5  13   5   50.40    5.96
   0 -14  -5   30.81    6.37
   0 -14  -5   49.80    7.86
   0 -14   5   31.23    6.41
   0  14   5   36.05    6.30
   0  14   5   44.14    6.27
   0  14  -5   37.68    5.65
   0  14   5   34.54    4.34
 -16   0   6  137.43   15.34
  16   0  -6  126.70   10.99
 -16   0   6  119.55   10.07
 -16   0   6  104.80    9.68
 -16   0   6  126.77    8.39
 -14   0   6   84.47    7.25
  14   0  -6   73.42    8.17
 -14   0   6   81.12    6.35
 -14   0   6   75.15    7.88
  14   0  -6   83.52    5.09
 -14   0   6   81.36    6.73
  12   0  -6   39.30    6.24
 -12   0   6   33.87    4.69
 -12   0   6   39.52    4.13
 -12   0   6   26.14    4.73
  12   0  -6   35.25    3.17
 -12   0   6   38.91    4.49
  10   0  -6  325.90   13.60
  10   0  -6  320.53   15.70
 -10   0   6  331.71   14.32
 -10   0   6  312.60   15.34
 -10   0   6  326.73   15.43
 -10   0   6  334.97   15.23
  -8   0   6  204.22   10.43
   8   0  -6  211.32    9.01
  -8   0   6  214.98   10.63
  -8   0   6  201.67   10.29
   8   0  -6  213.51   10.84
  -6   0   6  117.30    6.66
   6   0  -6  120.59    5.49
   6   0  -6  111.24    6.69
  -6   0   6  116.14    6.38
  -6   0   6  118.28    6.47
  -4   0   6   53.60    3.98
   4   0  -6   58.95    3.28
  -4   0   6   59.09    3.93
   4   0  -6   57.20    4.13
  -4   0   6   55.24    3.69
   4   0  -6   59.15    3.87
  -2   0   6  583.85   24.88
  -2   0   6  607.22   24.99
   2   0  -6  606.52   25.08
   2   0  -6  609.55   24.52
   2   0  -6  619.65   24.74
   0   0  -6  240.16   11.10
   0   0   6  240.93   10.85
   0   0   6  235.02   11.01
   0   0  -6  261.44   10.82
   2   0   6  323.67   14.28
  -2   0  -6  320.14   14.01
  -2   0  -6  338.14   14.47
   2   0   6  327.81   13.91
   4   0   6   33.38    2.63
  -4   0  -6   35.16    3.10
  -4   0  -6   35.11    3.40
  -4   0  -6   35.52    2.27
   4   0   6   34.69    3.25
  -6   0  -6  765.18   33.06
  -6   0  -6  813.87   33.28
  -6   0  -6  806.92   33.57
   6   0   6  799.09   33.29
  -6   0  -6  851.63   31.94
   8   0   6  234.14   11.72
  -8   0  -6  244.72   12.13
  -8   0  -6  236.31   10.52
  -8   0  -6  245.08   11.81
  10   0   6    5.19    2.26
 -10   0  -6    5.60    3.37
 -10   0  -6    2.79    1.67
 -10   0  -6    4.09    2.39
  12   0   6   59.01    6.28
 -12   0  -6   45.99    4.66
 -12   0  -6   45.85    6.24
 -12   0  -6   64.94    6.49
  14   0   6   70.20    8.13
 -14   0  -6   84.41    8.53
 -14   0  -6   74.06    8.44
 -14   0  -6   81.77    6.42
 -15  -1   6   64.14    7.30
  15  -1  -6   54.41    5.37
 -15  -1   6   48.54    6.28
  15  -1  -6   72.86    8.18
 -15  -1   6   47.90    5.90
 -15  -1   6   51.09    5.78
 -15   1   6   55.90    7.15
 -15   1   6   69.32    5.92
  15   1  -6   44.25    6.92
 -13  -1   6  224.36   12.21
 -13  -1   6  228.62   11.47
 -13  -1   6  208.61   12.26
  13  -1  -6  215.75   10.27
  13  -1  -6  209.53   13.02
 -13  -1   6  217.28   11.16
 -13   1   6  219.69   11.49
 -13   1   6  205.55   11.93
 -13   1   6  226.28   10.66
  13   1  -6  203.95   12.85
 -13   1   6  208.26   12.47
 -11  -1   6    9.36    2.94
  11  -1  -6    7.48    2.83
 -11  -1   6    7.10    2.16
 -11  -1   6    9.51    2.57
  11  -1  -6    6.00    1.85
 -11  -1   6    3.37    2.03
  11   1  -6    9.22    2.96
  11   1  -6    7.73    1.26
 -11   1   6    9.58    2.99
 -11   1   6    9.20    1.97
 -11   1   6    6.94    2.36
 -11   1   6    6.14    2.44
  -9  -1   6    3.09    2.09
   9  -1  -6    1.12    1.90
  -9  -1   6    6.13    2.42
  -9  -1   6    2.58    1.89
   9  -1  -6    5.52    1.59
  -9  -1   6    3.64    1.77
  -9   1   6    3.70    2.10
  -9   1   6    3.86    2.02
   9   1  -6    6.08    2.41
  -9   1   6    1.45    1.94
   9   1  -6    1.40    0.87
  -7  -1   6   23.13    3.03
  -7  -1   6   22.57    2.84
   7  -1  -6   17.93    2.94
  -7  -1   6   24.14    3.10
   7  -1  -6   19.00    2.25
   7   1  -6   24.25    1.60
  -7   1   6   21.06    2.84
  -7   1   6   28.11    3.36
   7   1  -6   21.20    3.35
  -7   1   6   28.74    3.37
   5  -1  -6  148.61    7.89
  -5  -1   6  153.47    7.71
   5  -1  -6  141.97    7.62
  -5  -1   6  152.23    7.74
  -5  -1   6  150.72    7.57
   5  -1  -6  152.98    7.06
  -5   1   6  150.57    7.44
  -5   1   6  144.30    7.60
  -5   1   6  149.72    7.82
   3  -1  -6  246.37   11.13
   3  -1  -6  250.06   11.73
  -3  -1   6  250.87   11.52
   3  -1  -6  264.01   11.58
  -3  -1   6  245.20   11.55
  -3   1   6  253.53   11.55
   3   1  -6  249.83   11.63
   3   1  -6  262.91   11.19
  -3   1   6  265.11   11.64
  -3   1   6  263.35   11.15
  -1  -1   6   10.96    1.91
   1  -1  -6    9.43    1.75
   1  -1  -6    8.81    1.96
  -1  -1   6   10.07    1.76
   1  -1  -6   11.43    1.72
  -1   1   6   10.07    1.79
   1   1  -6    7.51    1.72
  -1   1   6    6.96    1.23
   1   1  -6    9.24    1.41
  -1   1   6    8.99    1.83
   1  -1   6  247.30   11.00
  -1  -1  -6  249.95   10.20
  -1  -1  -6  257.02   11.17
   1  -1   6  250.52   11.27
  -1   1  -6  253.06   10.73
   1   1   6  238.23   10.87
   1   1   6  243.75   11.11
  -3  -1  -6  319.93   12.18
   3  -1   6  310.11   13.26
   3  -1   6  304.40   13.79
  -3  -1  -6  312.46   12.16
  -3  -1  -6  308.39   13.71
  -3  -1  -6  311.29   13.59
   3   1   6  294.13   13.56
  -3   1  -6  313.26   13.83
  -3   1  -6  314.16   13.32
   3   1   6  305.26   13.10
  -5  -1  -6   74.07    5.02
  -5  -1  -6   69.56    4.93
  -5  -1  -6   81.26    3.37
   5  -1   6   75.28    4.30
  -5  -1  -6   83.07    5.10
   5  -1   6   72.54    5.03
  -5   1  -6   72.92    4.71
   5   1   6   85.45    4.11
  -5   1  -6   76.46    5.15
  -5   1  -6   77.70    4.24
   5   1   6   75.96    4.91
  -7  -1  -6   13.25    2.88
   7  -1   6   13.42    2.72
  -7  -1  -6   13.86    1.51
  -7  -1  -6   18.47    2.91
  -7  -1  -6   15.49    2.75
   7   1   6   11.64    2.38
  -7   1  -6   16.43    2.98
  -7   1  -6   16.83    2.91
  -7   1  -6   13.33    2.00
  -9  -1  -6   63.53    5.09
  -9  -1  -6   53.98    4.92
   9  -1   6   51.52    4.81
  -9  -1  -6   53.42    3.60
   9   1   6   54.61    4.74
  -9   1  -6   52.59    5.09
  -9   1  -6   65.26    5.53
  -9   1  -6   55.23    4.10
 -11  -1  -6   67.77    4.51
 -11  -1  -6   64.65    6.49
  11  -1   6   55.03    6.17
 -11  -1  -6   62.20    5.97
  11   1   6   65.30    5.64
 -11   1  -6   73.36    8.54
 -11   1  -6   55.77    5.71
 -11   1  -6   62.08    4.86
 -13  -1  -6  106.59    8.13
 -13  -1  -6  104.18    8.72
  13  -1   6   95.78    8.03
 -13  -1  -6   94.02    6.19
 -13   1  -6  103.65    6.76
  13   1   6   75.72    7.65
 -13   1  -6   83.68    8.01
 -13   1  -6  100.43    8.55
 -15  -1  -6   -1.35    4.47
 -15  -1  -6    6.52    3.37
  15  -1   6    6.68    5.03
 -15   1  -6    4.18    4.94
 -15   1  -6    4.55    4.81
  15   1   6    5.18    5.18
 -15   1  -6    2.68    3.21
 -16  -2   6   21.36    5.55
  16  -2  -6   34.31    6.80
 -16  -2   6   28.45    5.72
 -16  -2   6   29.17    5.94
 -16  -2   6   31.81    6.19
  16  -2  -6   29.44    4.40
  16   2  -6   40.53    7.14
 -16   2   6   21.59    5.59
 -16   2   6   34.61    4.38
 -16   2   6   29.44    6.46
 -16   2   6   19.73    5.25
  14  -2  -6   25.22    3.73
 -14  -2   6   23.73    4.09
 -14  -2   6   29.15    5.20
 -14  -2   6   28.08    5.08
 -14  -2   6   22.68    3.83
  14  -2  -6   21.84    5.14
 -14   2   6   22.09    4.74
 -14   2   6   24.99    3.31
  14   2  -6   25.22    5.74
 -14   2   6   26.51    4.99
 -12  -2   6    2.63    2.48
 -12  -2   6   10.59    3.12
 -12  -2   6    3.41    2.41
  12  -2  -6    8.07    2.37
 -12   2   6    6.99    2.01
 -12   2   6    3.49    2.49
 -12   2   6   -2.14    2.35
 -10  -2   6   73.14    5.32
 -10  -2   6   84.76    6.11
 -10  -2   6   84.30    5.77
  10  -2  -6   73.32    6.00
 -10  -2   6   83.11    5.72
  10  -2  -6   76.73    4.94
 -10   2   6   73.03    5.65
 -10   2   6   88.38    5.88
  10   2  -6   77.29    5.89
 -10   2   6   80.05    5.89
  -8  -2   6  464.03   19.72
  -8  -2   6  453.83   19.80
   8  -2  -6  431.16   19.84
   8  -2  -6  430.62   18.80
  -8  -2   6  443.57   19.53
  -8   2   6  461.46   19.72
  -8   2   6  450.34   19.72
  -8   2   6  434.56   19.75
   8   2  -6  461.90   20.03
   6  -2  -6   19.97    3.07
  -6  -2   6   20.81    2.86
   6  -2  -6   20.78    2.46
  -6  -2   6   19.28    2.66
  -6   2   6   16.99    2.53
   6   2  -6   20.47    2.86
  -6   2   6   23.94    3.11
  -6   2   6   24.65    3.12
  -4  -2   6   77.31    4.91
   4  -2  -6   79.75    4.60
   4  -2  -6   77.97    5.09
  -4  -2   6   81.61    4.91
   4  -2  -6   78.73    4.94
  -4   2   6   78.86    4.81
   4   2  -6   73.26    4.84
  -4   2   6   79.48    4.58
  -4   2   6   75.23    4.80
  -2  -2   6  187.62    9.04
  -2  -2   6  189.21    9.03
   2  -2  -6  189.10    9.15
   2  -2  -6  191.27    9.05
   2  -2  -6  196.17    8.93
  -2   2   6  182.99    8.87
  -2   2   6  185.65    8.88
   2   2  -6  187.00    8.93
  -2   2   6  186.70    8.32
   2   2  -6  190.24    8.28
   0  -2   6   94.85    5.31
   0  -2  -6   94.50    5.31
   0  -2  -6   89.96    5.20
   0  -2   6   89.02    5.17
   0   2   6   85.19    4.92
   0   2   6   94.66    4.22
   0   2   6   92.31    5.06
   0   2  -6   83.24    4.96
   0   2  -6  100.06    4.52
  -2  -2  -6   30.53    3.23
   2  -2   6   35.61    3.15
  -2  -2  -6   30.40    2.91
  -2  -2  -6   30.84    2.94
  -2  -2  -6   28.90    4.30
   2  -2   6   29.31    2.81
   2   2   6   31.76    2.53
  -2   2  -6   29.20    3.22
  -2   2  -6   29.70    2.34
   2   2   6   35.91    2.76
  -4  -2  -6    0.45    1.42
  -4  -2  -6   -2.25    1.31
  -4  -2  -6   -0.53    1.52
   4  -2   6   -0.02    1.46
   4  -2   6   -0.67    1.10
   4   2   6   -1.35    1.17
   4   2   6    1.47    0.98
  -4   2  -6   -2.48    1.44
  -4   2  -6   -0.08    1.18
  -4   2  -6    0.87    1.16
  -6  -2  -6   65.78    6.91
  -6  -2  -6   83.56    5.52
  -6  -2  -6   72.82    5.47
   6  -2   6   84.54    5.57
  -6   2  -6   85.06    4.79
   6   2   6   87.35    5.18
   6   2   6   84.84    4.08
  -6   2  -6   78.96    5.50
  -8  -2  -6  166.13    6.93
  -8  -2  -6  166.26    8.47
  -8  -2  -6  162.79    9.14
   8  -2   6  157.01    8.94
  -8  -2  -6  177.61    9.34
  -8   2  -6  133.88    8.69
  -8   2  -6  160.77    9.06
   8   2   6  165.65    8.54
  -8   2  -6  166.96    8.11
 -10  -2  -6   81.85    6.21
 -10  -2  -6   85.48    6.47
 -10  -2  -6   85.93    4.65
  10  -2   6   88.70    6.57
  10   2   6   81.50    5.82
 -10   2  -6   84.23    6.57
 -10   2  -6   82.08    6.43
 -10   2  -6   75.56    5.35
  12  -2   6   42.74    5.67
 -12  -2  -6   45.72    4.01
 -12  -2  -6   51.78    5.38
 -12  -2  -6   38.31    6.00
 -12   2  -6   49.87    5.58
  12   2   6   52.74    5.88
 -12   2  -6   38.40    5.88
 -12   2  -6   44.91    5.47
  14  -2   6   76.03    8.72
 -14  -2  -6   72.93    5.99
 -14  -2  -6   67.24    8.24
 -14   2  -6   74.21    6.73
 -14   2  -6   70.28    7.99
 -14   2  -6   72.99    8.23
 -15  -3   6   54.77    6.86
  15  -3  -6   47.81    7.31
 -15  -3   6   52.38    6.98
  15  -3  -6   50.23    5.46
 -15  -3   6   44.65    5.33
 -15  -3   6   47.52    6.46
 -15   3   6   51.09    6.59
  15   3  -6   51.74    7.49
 -15   3   6   43.64    6.85
 -15   3   6   50.31    4.75
 -15   3   6   56.75    7.31
 -13  -3   6    9.71    3.95
 -13  -3   6   11.21    2.96
 -13  -3   6   14.33    4.10
 -13  -3   6    6.85    2.99
  13  -3  -6    8.50    3.03
  13  -3  -6    6.35    4.43
 -13   3   6   10.53    3.80
 -13   3   6   12.08    2.32
  13   3  -6    3.39    4.25
 -13   3   6   14.65    3.55
 -11  -3   6   20.51    3.69
 -11  -3   6   22.81    3.35
 -11  -3   6   21.68    3.63
  11  -3  -6   24.95    3.31
  11  -3  -6   23.03    3.86
 -11   3   6   21.54    3.72
 -11   3   6   30.35    4.25
 -11   3   6   18.45    3.30
  11   3  -6   21.08    3.53
  -9  -3   6   -0.32    1.71
   9  -3  -6    2.08    1.69
  -9  -3   6   -1.44    2.13
  -9  -3   6    0.29    1.83
   9  -3  -6   -2.57    1.90
   9   3  -6    1.57    2.15
  -9   3   6    2.16    1.98
  -9   3   6    1.38    1.90
  -9   3   6   -1.27    1.93
  -7  -3   6   43.20    3.90
   7  -3  -6   43.57    4.42
  -7  -3   6   42.92    4.17
   7  -3  -6   36.65    3.43
   7  -3  -6   44.43    2.36
  -7   3   6   46.58    4.07
  -7   3   6   38.98    3.90
  -7   3   6   46.12    4.16
   7   3  -6   41.09    4.09
  -5  -3   6   60.37    4.45
   5  -3  -6   57.81    4.56
   5  -3  -6   62.62    4.20
  -5  -3   6   61.16    4.41
   5  -3  -6   65.62    2.96
   5  -3  -6   67.46    4.82
  -5   3   6   67.50    4.50
  -5   3   6   62.03    4.42
  -5   3   6   61.83    4.19
   5   3  -6   54.77    4.34
   3  -3  -6   32.56    3.61
  -3  -3   6   29.48    3.06
   3  -3  -6   25.65    2.81
  -3  -3   6   27.70    3.09
   3  -3  -6   31.28    3.22
   3  -3  -6   31.39    2.11
  -3   3   6   28.06    2.98
   3   3  -6   31.65    2.27
  -3   3   6   26.28    2.51
  -3   3   6   29.13    2.89
   3   3  -6   30.06    2.97
   1  -3  -6   12.93    2.08
   1  -3  -6   17.94    2.61
   1  -3  -6    9.91    2.12
  -1  -3   6   14.64    2.33
   1  -3  -6   14.26    1.79
  -1  -3   6   18.30    2.45
  -1   3   6   15.71    2.09
   1   3  -6   16.94    2.10
   1   3  -6   15.56    1.40
  -1   3   6   12.55    1.94
  -1   3   6   14.92    1.65
  -1  -3  -6  154.01    7.14
  -1  -3  -6  149.64    7.62
  -1  -3  -6  150.60    7.12
   1  -3   6  128.03    7.31
  -1  -3  -6  153.14    7.84
  -1  -3  -6  150.17    6.21
   1  -3   6  148.76    7.45
  -1   3  -6  151.16    7.74
   1   3   6  153.04    6.07
  -1   3  -6  141.90    6.37
   1   3   6  143.63    7.08
   1   3   6  133.54    6.98
   3  -3   6   60.57    4.00
  -3  -3  -6   60.03    3.81
   3  -3   6   59.64    4.32
  -3  -3  -6   54.38    4.50
  -3  -3  -6   67.53    4.29
  -3  -3  -6   68.45    4.54
  -3   3  -6   59.80    4.59
   3   3   6   58.21    3.84
   3   3   6   53.19    3.50
  -3   3  -6   59.11    3.38
  -5  -3  -6   -0.16    1.67
   5  -3   6    2.99    1.74
  -5  -3  -6    1.38    1.51
  -5  -3  -6    0.86    1.76
   5   3   6    1.42    1.48
  -5   3  -6    1.46    1.68
  -5   3  -6    3.01    1.62
   5   3   6   -1.74    0.96
  -7  -3  -6   26.90    3.77
   7  -3   6   24.56    3.53
  -7  -3  -6   18.18    3.26
  -7  -3  -6   21.25    2.76
   7   3   6   24.22    2.96
  -7   3  -6   17.75    3.17
   7   3   6   21.17    1.71
  -7   3  -6   27.66    3.02
  -9  -3  -6    2.29    2.36
  -9  -3  -6    3.90    2.22
   9  -3   6   -0.41    2.09
  -9  -3  -6    0.78    2.37
  -9   3  -6   -0.95    2.54
  -9   3  -6   -0.07    2.12
   9   3   6    6.49    1.96
  -9   3  -6   -4.57    1.67
 -11  -3  -6   79.65    7.40
 -11  -3  -6   88.17    6.81
 -11   3  -6   72.65    9.22
  11   3   6   65.89    5.73
 -11   3  -6   76.59    6.85
 -11   3  -6   66.23    5.59
 -13  -3  -6   68.02    7.87
  13  -3   6   78.11    8.38
  13  -3   6   79.77    7.85
  13   3   6   77.84    6.90
 -13   3  -6   60.51    7.54
 -13   3  -6   71.27    7.41
  15  -3   6    8.19    4.93
 -15  -3  -6    0.60    4.10
 -15   3  -6   16.53    6.60
 -15   3  -6   -4.92    4.12
  15   3   6    7.96    4.86
 -14  -4   6    7.77    4.87
  14  -4  -6   -1.02    4.12
 -14  -4   6    8.25    4.50
 -14  -4   6    0.95    4.41
  14  -4  -6    0.18    2.98
 -14   4   6    4.58    4.02
  14   4  -6    1.88    4.21
 -14   4   6    1.46    3.97
 -14   4   6    1.00    3.98
 -12  -4   6   17.63    3.34
 -12  -4   6   12.55    2.98
 -12  -4   6   17.70    4.06
  12  -4  -6   19.77    4.72
  12  -4  -6   13.40    3.17
 -12   4   6   13.09    4.23
 -12   4   6   17.97    3.71
  12   4  -6   17.07    5.11
  10  -4  -6  111.20    7.63
 -10  -4   6  123.77    7.43
  10  -4  -6  120.67    7.04
 -10  -4   6  109.32    7.09
 -10  -4   6  112.57    7.16
 -10   4   6  109.57    7.43
 -10   4   6  104.48    7.27
 -10   4   6  118.89    7.49
  10   4  -6  113.76    7.52
   8  -4  -6   56.94    5.23
   8  -4  -6   57.22    4.53
  -8  -4   6   50.02    4.62
  -8  -4   6   56.41    4.79
  -8   4   6   55.64    4.74
  -8   4   6   55.48    4.82
   8   4  -6   49.35    4.72
  -8   4   6   54.32    4.70
   6  -4  -6    5.56    2.13
   6  -4  -6    5.15    1.96
  -6  -4   6    6.92    2.16
  -6  -4   6    3.53    1.94
   6  -4  -6    4.01    1.77
  -6   4   6   10.53    2.36
   6   4  -6    4.33    1.82
  -6   4   6    3.10    1.62
  -6   4   6    4.83    1.86
  -4  -4   6   12.24    2.07
   4  -4  -6   13.50    2.68
  -4  -4   6   13.65    1.50
  -4  -4   6   10.67    1.53
   4  -4  -6   12.23    2.14
  -4  -4   6   13.13    2.37
   4  -4  -6    7.37    2.12
  -4   4   6   13.53    2.31
  -4   4   6   11.20    1.99
  -4   4   6   10.27    2.13
   4   4  -6   15.85    2.34
   2  -4  -6    6.43    2.05
   2  -4  -6    5.40    2.01
   2  -4  -6    5.69    1.35
  -2  -4   6    3.89    1.70
  -2  -4   6    2.57    1.60
   2  -4  -6    2.68    1.64
  -2   4   6    2.86    1.48
   2   4  -6    6.67    1.57
  -2   4   6    6.23    1.38
   2   4  -6    5.58    0.85
  -2   4   6    3.73    1.52
   0  -4   6   54.64    4.11
   0  -4  -6   64.35    3.60
   0  -4   6   55.82    4.10
   0  -4  -6   48.60    4.03
   0  -4  -6   63.88    4.49
   0   4   6   55.82    3.68
   0   4   6   56.91    3.83
   0   4   6   55.40    3.00
   0   4  -6   53.64    2.51
   2  -4   6   16.77    2.30
  -2  -4  -6   19.54    2.49
   2  -4   6   19.36    1.95
   2  -4   6   13.44    2.50
  -2  -4  -6   13.07    2.35
  -2  -4  -6   14.44    2.64
   2   4   6   22.75    2.42
   2   4   6   14.33    1.95
  -2   4  -6   13.03    2.33
   4  -4   6    4.00    1.98
  -4  -4  -6    0.63    1.94
  -4  -4  -6   -1.06    1.58
  -4  -4  -6   -0.66    1.59
  -4   4  -6    2.15    1.82
   4   4   6    0.17    1.27
   4   4   6   -0.30    1.01
   6  -4   6    4.06    2.24
  -6  -4  -6    4.64    2.47
  -6  -4  -6    7.23    2.42
  -6  -4  -6    7.63    2.31
  -6   4  -6    8.40    2.35
   6   4   6    7.89    1.19
  -6   4  -6    0.71    1.71
   6   4   6    5.84    1.60
  -8  -4  -6  189.03   10.61
  -8  -4  -6  185.88    9.66
   8  -4   6  186.86   10.33
  -8  -4  -6  190.69   10.34
  -8   4  -6  188.94    9.66
  -8   4  -6  208.59   10.77
   8   4   6  189.19    9.48
 -10  -4  -6    2.05    3.03
  10  -4   6    5.98    2.52
 -10  -4  -6    1.87    2.52
 -10   4  -6    1.21    2.27
  10   4   6   -0.11    1.74
 -10   4  -6    3.67    2.05
 -10   4  -6   -1.19    2.84
  12  -4   6   13.75    4.30
  12  -4   6   19.36    4.04
 -12  -4  -6   15.55    4.82
  12   4   6   20.61    4.18
 -12   4  -6   18.27    3.22
 -12   4  -6   17.64    4.21
 -12   4  -6   10.66    4.06
 -14  -4  -6    5.33    4.41
  14  -4   6    0.89    4.38
 -14   4  -6   -0.79    5.24
 -14   4  -6   -3.10    4.04
 -15  -5   6   14.73    5.07
 -15  -5   6   18.52    4.32
  15  -5  -6   15.28    5.78
 -15   5   6   21.41    5.69
 -15   5   6   19.06    5.69
  15   5  -6    7.09    4.88
 -15   5   6   22.00    5.85
 -13  -5   6    2.86    3.86
  13  -5  -6    7.00    3.93
 -13  -5   6    6.72    4.14
 -13  -5   6    3.20    2.86
  13  -5  -6    8.39    3.19
 -13   5   6    4.64    3.93
  13   5  -6    7.58    4.35
 -13   5   6    1.75    4.16
 -13   5   6    3.36    3.87
  11  -5  -6   21.19    3.65
 -11  -5   6   15.53    3.22
 -11  -5   6   18.75    3.69
  11  -5  -6   22.51    4.29
 -11  -5   6   20.57    3.16
 -11   5   6   13.65    4.22
 -11   5   6   16.85    3.50
  11   5  -6   14.92    3.41
  -9  -5   6   11.63    2.74
   9  -5  -6   15.08    2.99
   9  -5  -6   16.94    3.61
   9  -5  -6   15.12    3.11
  -9  -5   6   18.90    3.15
  -9  -5   6   17.93    3.38
  -9   5   6   15.27    3.05
  -9   5   6   18.56    3.30
  -9   5   6   17.84    3.29
   9   5  -6   18.97    3.55
   7  -5  -6   22.50    3.16
   7  -5  -6   15.87    2.95
  -7  -5   6   22.66    3.32
   7  -5  -6   21.56    3.27
  -7  -5   6   20.96    2.95
  -7   5   6   14.00    2.48
  -7   5   6   16.98    3.11
   7   5  -6   18.94    3.14
  -7   5   6   14.48    2.67
   5  -5  -6   24.82    3.38
  -5  -5   6   20.14    3.02
  -5  -5   6   21.15    3.00
   5  -5  -6   21.63    3.06
   5  -5  -6   18.56    3.09
   5   5  -6   22.69    2.98
  -5   5   6   18.12    2.70
  -5   5   6   22.83    2.78
  -5   5   6   19.06    2.88
   3  -5  -6   -0.02    0.98
   3  -5  -6   -1.51    1.75
  -3  -5   6    0.48    1.24
  -3  -5   6    6.03    2.08
   3  -5  -6   -2.02    1.44
   3  -5  -6   -0.01    1.62
  -3  -5   6   -1.02    1.67
   3   5  -6   -0.07    0.77
  -3   5   6    0.63    1.29
  -3   5   6    2.00    1.42
   3   5  -6    0.76    1.44
   3   5  -6   -2.68    1.02
  -3   5   6   -2.33    1.45
   1  -5  -6   14.69    1.83
  -1  -5   6   15.62    2.58
   1  -5  -6   18.53    2.95
  -1  -5   6   22.22    2.81
   1   5  -6   20.00    2.20
  -1   5   6   19.88    2.40
  -1   5   6   17.63    2.42
  -1   5   6   15.68    1.89
  -1  -5  -6    1.90    1.34
  -1  -5  -6    2.79    1.70
  -1  -5  -6    4.95    1.95
   1  -5   6    3.96    1.86
   1   5   6    4.11    1.29
  -1   5  -6    7.63    2.01
   1   5   6    2.92    1.50
   3  -5   6   35.37    3.55
  -3  -5  -6   39.08    4.03
   3  -5   6   39.18    2.87
  -3  -5  -6   38.22    3.47
  -3  -5  -6   32.65    3.93
  -3  -5  -6   37.58    2.85
   3   5   6   37.14    3.08
   3   5   6   37.18    2.96
  -3   5  -6   32.45    3.90
  -5  -5  -6    2.31    2.01
   5  -5   6    4.87    2.16
  -5  -5  -6    7.24    2.37
  -5  -5  -6    4.43    2.16
   5   5   6    5.70    1.39
  -5   5  -6    2.80    1.86
   5   5   6    1.23    1.39
  -5   5  -6    4.47    2.33
  -7  -5  -6   26.85    4.05
   7  -5   6   23.22    3.70
  -7  -5  -6   24.33    3.67
   7   5   6   26.93    3.03
  -7   5  -6   30.04    3.64
  -7   5  -6   24.83    3.67
   9  -5   6    2.19    2.33
  -9  -5  -6   -0.70    2.45
  -9  -5  -6   -0.75    2.15
  -9   5  -6    1.01    2.35
  -9   5  -6    1.53    2.30
   9   5   6   -1.00    1.66
 -11  -5  -6   12.90    4.33
  11  -5   6    8.92    3.03
  11  -5   6   17.30    4.81
 -11  -5  -6   12.76    4.28
 -11   5  -6    2.76    3.86
 -11   5  -6   17.82    3.98
 -11   5  -6   13.49    3.24
  13  -5   6    0.81    4.40
 -13  -5  -6    5.57    4.29
 -13   5  -6   -2.89    5.35
 -13   5  -6    4.63    4.19
  14  -6  -6   -1.08    5.10
 -14  -6   6    4.13    4.53
 -14  -6   6    6.40    3.90
  14  -6  -6    8.29    5.26
  14   6  -6   11.70    5.23
 -14   6   6   19.98    5.28
 -14   6   6    9.49    4.51
 -14   6   6    7.42    4.83
 -12  -6   6   -2.89    3.63
  12  -6  -6   -0.42    2.69
  12  -6  -6   -0.13    4.29
 -12  -6   6    1.30    2.65
 -12  -6   6    5.93    4.11
 -12   6   6   -0.84    3.37
 -12   6   6   -7.15    2.93
 -12   6   6    1.51    3.60
  12   6  -6    0.86    3.85
 -10  -6   6    2.67    2.43
  10  -6  -6    6.45    2.53
 -10  -6   6    5.57    2.72
  10  -6  -6    9.18    3.91
 -10  -6   6    9.69    3.51
  10  -6  -6    0.70    2.80
 -10   6   6    7.00    2.82
 -10   6   6    7.58    3.10
  10   6  -6    5.83    2.71
 -10   6   6   -0.37    3.62
   8  -6  -6    2.47    2.18
   8  -6  -6    0.71    2.11
   8  -6  -6    4.22    2.34
  -8  -6   6    1.60    2.68
  -8  -6   6    0.29    2.23
  -8   6   6    1.64    2.09
  -8   6   6   -0.52    2.21
   8   6  -6   -0.05    2.12
  -8   6   6   -1.36    1.90
   6  -6  -6    5.46    2.35
   6  -6  -6    7.86    2.30
   6  -6  -6    7.02    2.60
  -6  -6   6    6.60    2.22
  -6  -6   6    3.60    2.40
   6   6  -6    4.83    2.10
  -6   6   6    8.47    2.37
  -6   6   6    7.29    2.17
  -6   6   6    2.40    1.90
   4  -6  -6   15.70    2.90
  -4  -6   6   14.88    2.71
  -4  -6   6   17.37    2.78
   4  -6  -6   21.25    3.46
   4  -6  -6   21.89    3.37
  -4   6   6   16.00    2.55
   4   6  -6   17.55    2.53
  -4   6   6   23.29    3.26
  -4   6   6   23.33    2.87
  -2  -6   6    1.61    1.84
  -2  -6   6    0.86    2.06
   2  -6  -6    2.42    2.05
  -2  -6   6    4.52    1.70
   2  -6  -6    3.01    1.82
   2   6  -6    1.52    1.25
  -2   6   6    3.16    1.49
  -2   6   6    1.50    1.67
  -2   6   6    1.61    1.37
   0  -6  -6   24.77    2.37
   0  -6  -6   23.73    3.30
   0  -6  -6   17.91    3.24
   0  -6  -6   24.07    2.53
   0  -6   6   24.88    3.08
   0   6   6   21.85    2.93
   0   6  -6   21.59    3.12
   0   6   6   24.47    2.36
   0   6   6   22.68    2.60
  -2  -6  -6    0.49    1.81
   2  -6   6    0.00    1.91
  -2  -6  -6   -0.73    1.39
  -2  -6  -6    0.29    1.74
   2   6   6   -0.40    1.45
   2   6   6    0.14    1.18
  -2   6  -6   -0.65    1.53
  -4  -6  -6   24.57    3.28
  -4  -6  -6   22.17    3.40
   4  -6   6   21.41    3.39
  -4  -6  -6   21.70    3.56
  -4   6  -6   23.90    3.57
   4   6   6   16.94    1.54
   4   6   6   24.91    2.75
   4   6   6   19.23    2.37
   4   6   6   20.20    1.35
  -6  -6  -6   23.22    3.85
   6  -6   6   16.19    3.26
  -6  -6  -6   21.24    3.76
  -6  -6  -6   22.18    3.49
   6   6   6   20.31    2.44
  -6   6  -6   22.75    3.50
  -6   6  -6   17.73    3.43
   6   6   6   21.75    2.45
  -8  -6  -6    7.38    2.81
   8  -6   6    1.37    2.54
  -8  -6  -6    1.26    2.51
  -8   6  -6    1.93    2.51
   8   6   6    3.25    1.08
   8   6   6    3.85    1.89
  -8   6  -6    6.41    2.53
  10  -6   6   11.97    3.70
 -10  -6  -6    8.46    4.13
  10  -6   6    8.87    2.89
 -10  -6  -6   14.32    4.37
 -10   6  -6   13.31    3.29
 -10   6  -6   11.22    3.71
  10   6   6   13.50    2.48
  12  -6   6   -4.43    3.41
 -12  -6  -6   -0.66    3.87
  12   6   6   -1.28    2.82
 -12   6  -6   -2.61    3.75
 -12   6  -6    3.79    4.64
 -12   6  -6    2.38    3.80
 -14  -6  -6    0.39    4.74
  14  -6   6    2.61    4.99
 -14   6  -6   -1.12    4.31
 -14   6  -6    1.34    5.53
 -14   6  -6   -2.80    4.28
 -13  -7   6   21.23    5.45
  13  -7  -6   28.10    5.85
 -13  -7   6   39.66    6.25
  13  -7  -6   22.34    5.44
  13  -7  -6   33.36    6.34
 -13   7   6   33.61    6.04
 -13   7   6   28.40    5.96
 -13   7   6   38.49    6.20
  13   7  -6   26.02    5.59
  11  -7  -6   36.69    5.11
 -11  -7   6   42.73    4.84
 -11  -7   6   30.23    5.38
  11  -7  -6   30.18    5.64
 -11   7   6   39.95    5.55
  11   7  -6   50.91    5.63
 -11   7   6   31.93    5.51
 -11   7   6   35.66    5.59
   9  -7  -6    1.83    2.54
   9  -7  -6    0.80    3.65
  -9  -7   6    2.64    3.08
  -9  -7   6   -2.53    2.10
   9  -7  -6    7.52    2.80
  -9   7   6    0.54    2.27
  -9   7   6    2.44    3.01
   9   7  -6    0.75    2.42
   7  -7  -6   68.68    5.80
  -7  -7   6   76.55    5.97
  -7  -7   6   68.86    5.57
   7  -7  -6   79.37    6.30
   7  -7  -6   65.37    5.87
  -7   7   6   78.05    5.60
  -7   7   6   77.13    5.99
   7   7  -6   76.43    5.50
  -7   7   6   73.89    5.60
   5  -7  -6   19.05    3.40
  -5  -7   6   25.13    2.34
  -5  -7   6   19.21    2.99
  -5  -7   6   23.79    3.39
   5  -7  -6   22.92    3.54
   5  -7  -6   21.54    3.54
   5   7  -6   16.84    2.79
  -5   7   6   17.78    2.82
  -5   7   6   22.79    3.33
  -5   7   6   16.59    2.77
   3  -7  -6    0.58    2.04
  -3  -7   6   10.74    3.63
   3  -7  -6    4.12    2.16
   3  -7  -6    7.66    2.23
  -3  -7   6    5.93    1.82
   3   7  -6    3.74    1.55
  -3   7   6    7.38    2.13
  -3   7   6    6.31    1.72
  -3   7   6    5.69    1.71
  -1  -7   6   66.79    4.70
   1  -7  -6   70.89    4.05
   1  -7  -6   63.68    5.37
   1  -7  -6   61.91    5.05
  -1  -7   6   65.56    5.00
  -1   7   6   68.21    4.84
  -1   7   6   63.88    4.22
  -1   7   6   63.31    4.20
  -1  -7  -6    2.29    2.07
  -1  -7  -6    0.61    2.04
  -1  -7  -6    3.43    1.72
   1  -7   6   -2.22    2.12
   1   7   6    1.82    1.44
  -1   7  -6    5.02    1.91
   1   7   6    2.85    1.32
   1   7   6    1.24    1.73
   3  -7   6   86.76    6.21
  -3  -7  -6   92.21    6.48
  -3  -7  -6   95.24    6.51
  -3  -7  -6   87.99    5.68
  -3   7  -6   89.65    6.30
   3   7   6   90.90    4.93
   3   7   6  102.25    4.65
   3   7   6   91.69    5.50
  -5  -7  -6   33.88    3.83
  -5  -7  -6   31.70    4.05
   5  -7   6   34.10    4.23
  -5  -7  -6   23.77    3.70
  -5   7  -6   37.79    4.34
  -5   7  -6   31.46    4.16
   5   7   6   31.85    2.12
   5   7   6   29.58    3.13
   5   7   6   24.87    2.71
  -7  -7  -6    4.61    2.81
   7  -7   6   -1.69    2.63
  -7  -7  -6    7.74    2.78
  -7  -7  -6    6.94    3.12
  -7   7  -6    4.48    2.73
   7   7   6    5.39    2.36
  -7   7  -6    7.29    2.39
   7   7   6    7.46    1.12
   7   7   6    5.76    1.80
  -9  -7  -6   42.44    5.89
   9  -7   6   41.10    5.17
  -9  -7  -6   35.90    6.14
   9  -7   6   39.95    4.18
  -9   7  -6   37.94    5.80
   9   7   6   37.77    3.61
  -9   7  -6   45.05    5.08
 -11  -7  -6   32.32    5.87
 -11  -7  -6   35.27    6.78
  11  -7   6   38.78    4.73
 -11   7  -6   50.62    6.34
  11   7   6   38.84    4.80
 -11   7  -6   48.04    6.45
  13  -7   6   -1.06    4.11
 -13  -7  -6    3.29    4.95
 -13   7  -6   -0.66    4.67
 -13   7  -6   -2.27    4.34
 -13   7  -6   -3.16    5.18
  12  -8  -6   22.69    5.77
  12  -8  -6   16.55    5.54
 -12  -8   6   22.48    5.35
  12  -8  -6   24.58    5.59
 -12   8   6   22.83    5.34
 -12   8   6   26.41    5.68
 -12   8   6   21.11    5.13
  12   8  -6   14.99    5.06
  10  -8  -6   86.31    8.21
  10  -8  -6   78.77    7.85
  10  -8  -6   80.44    7.13
 -10   8   6   90.41    8.15
  10   8  -6   89.60    6.99
 -10   8   6   92.78    7.93
 -10   8   6   77.40    7.46
   8  -8  -6   19.20    4.62
  -8  -8   6   26.64    4.23
   8  -8  -6   24.30    4.14
   8  -8  -6   25.28    4.04
   8   8  -6   23.52    3.75
  -8   8   6   18.59    4.15
  -8   8   6   28.08    4.03
  -8   8   6   20.99    4.34
  -6  -8   6    4.82    2.92
   6  -8  -6    7.29    2.88
   6  -8  -6    4.39    2.40
   6  -8  -6    0.76    2.37
  -6  -8   6    3.73    1.47
  -6   8   6    1.52    1.89
  -6   8   6   -2.50    1.81
  -6   8   6    1.65    2.45
   6   8  -6    0.33    2.00
   4  -8  -6    3.55    2.25
  -4  -8   6    3.81    2.68
   4  -8  -6    2.75    2.31
   4  -8  -6    6.32    2.34
  -4  -8   6    2.22    1.86
  -4   8   6    5.10    1.86
  -4   8   6    3.71    2.15
  -4   8   6   -0.41    2.08
   4   8  -6    4.09    1.82
   2  -8  -6   67.74    5.52
  -2  -8   6   63.04    5.29
   2  -8  -6   64.21    5.54
  -2  -8   6   61.51    4.56
   2  -8  -6   70.13    3.94
  -2   8   6   59.27    4.31
  -2   8   6   67.03    4.74
  -2   8   6   64.27    5.22
   2   8  -6   68.82    3.96
   0  -8   6  228.09   10.89
   0  -8  -6  231.76   10.17
   0  -8   6  222.38   11.06
   0  -8  -6  207.26   11.58
   0  -8  -6  218.89   11.71
   0   8   6  216.70   10.22
   0   8  -6  217.95   11.24
   0   8   6  223.90   10.07
   0   8   6  212.82   10.93
   2  -8   6   31.46    3.79
  -2  -8  -6   24.61    3.15
  -2  -8  -6   29.19    4.14
  -2  -8  -6   26.85    3.78
   2   8   6   22.29    3.17
   2   8   6   25.31    2.77
  -2   8  -6   16.63    3.07
   2   8   6   25.81    2.65
  -4  -8  -6   38.60    4.92
  -4  -8  -6   44.99    4.24
   4  -8   6   40.75    4.77
  -4  -8  -6   42.84    4.81
   4   8   6   38.46    3.01
   4   8   6   37.66    2.92
  -4   8  -6   42.54    4.76
   4   8   6   40.50    3.84
  -6  -8  -6  107.84    8.00
   6  -8   6  113.96    6.10
   6  -8   6  100.22    7.79
  -6  -8  -6  121.08    8.06
  -6  -8  -6  106.66    7.30
  -6   8  -6  119.83    7.68
  -6   8  -6  112.03    7.90
   6   8   6  116.47    5.51
   6   8   6  120.21    5.97
   6   8   6  124.75    6.32
   8  -8   6   31.91    4.94
   8  -8   6   31.68    3.58
  -8  -8  -6   23.54    5.25
   8   8   6   31.64    3.14
   8   8   6   31.30    3.45
  -8   8  -6   26.04    5.55
  -8   8  -6   32.02    5.04
   8   8   6   37.75    4.19
 -10  -8  -6    4.82    4.13
  10  -8   6    6.33    4.05
  10  -8   6   12.10    3.38
 -10  -8  -6    8.14    4.71
 -10   8  -6    3.46    4.23
 -10   8  -6    3.66    4.06
  10   8   6    5.64    2.29
 -12  -8  -6    6.71    5.21
  12  -8   6    7.46    3.59
 -12  -8  -6   -3.90    4.02
 -12   8  -6    6.76    5.13
 -12   8  -6   -2.64    4.55
 -12   8  -6    0.81    4.77
  11  -9  -6   91.48    9.34
  11  -9  -6  102.61    9.60
  11  -9  -6   88.77    9.03
 -11   9   6   90.56    8.92
 -11   9   6   92.30    8.77
 -11   9   6   63.15    7.68
   9  -9  -6    1.92    3.68
   9  -9  -6    0.17    3.62
   9  -9  -6   -5.70    3.04
  -9   9   6    2.76    3.39
  -9   9   6   -1.89    3.50
   9   9  -6    1.83    2.86
  -9   9   6    8.09    3.55
   7  -9  -6   64.57    7.35
   7  -9  -6   57.90    5.81
   7  -9  -6   60.04    7.21
  -7   9   6   45.47    5.91
  -7   9   6   57.75    6.10
   7   9  -6   62.29    5.08
  -7   9   6   63.19    5.61
  -5  -9   6  284.64   12.73
   5  -9  -6  259.05   13.82
  -5  -9   6  271.26   11.71
   5  -9  -6  258.42   13.84
   5  -9  -6  257.76   12.91
   5   9  -6  273.96   12.09
  -5   9   6  276.61   13.21
  -5   9   6  236.30   12.56
  -5   9   6  261.30   13.72
   3  -9  -6   80.40    6.31
  -3  -9   6   77.96    5.10
   3  -9  -6   62.58    6.13
  -3   9   6   79.86    5.63
  -3   9   6   68.95    5.86
  -3   9   6   68.74    4.91
   3   9  -6   74.72    4.41
  -1  -9   6    6.91    2.44
   1  -9  -6    7.98    2.81
  -1  -9   6    9.81    2.86
   1  -9  -6    8.82    2.18
   1  -9  -6    7.23    2.52
   1   9  -6   12.86    2.55
  -1   9   6    7.54    1.71
  -1   9   6   14.94    2.77
  -1   9   6    9.23    2.75
  -1  -9  -6   56.53    4.37
  -1  -9  -6   49.90    5.05
   1  -9   6   57.36    5.15
   1  -9   6   52.17    5.01
  -1  -9  -6   55.77    5.33
  -1   9  -6   51.00    4.90
   1   9   6   53.60    3.89
   1   9   6   52.98    4.89
   1   9   6   59.43    4.24
  -3  -9  -6  127.85    8.54
   3  -9   6  139.82    8.59
  -3  -9  -6  149.29    7.96
   3  -9   6  134.02    8.28
  -3  -9  -6  132.96    8.73
   3   9   6  132.02    7.60
   3   9   6  131.96    6.80
  -3   9  -6  128.69    8.36
   3   9   6  139.41    6.51
   5  -9   6  119.04    5.53
   5  -9   6  117.93    8.08
  -5  -9  -6  116.03    7.60
  -5   9  -6  104.54    8.09
   5   9   6  119.05    6.84
   5   9   6  121.72    6.09
  -5   9  -6  120.19    8.75
   5   9   6  122.38    5.90
  -7  -9  -6   -0.31    3.45
  -7  -9  -6   -0.63    4.06
   7  -9   6    0.69    2.20
  -7  -9  -6   -0.56    3.61
   7  -9   6   -3.94    3.93
   7   9   6   -0.71    2.12
  -7   9  -6   -3.27    3.07
  -7   9  -6    2.21    3.91
   7   9   6   -0.49    1.76
   7   9   6   -0.32    1.56
   9  -9   6   92.40    6.44
  -9  -9  -6   89.41    9.06
  -9  -9  -6   77.34    8.28
   9   9   6   82.84    5.25
  -9   9  -6   82.64    8.88
  -9   9  -6   86.24    8.43
 -11  -9  -6   48.46    6.91
 -11  -9  -6   74.48    9.21
  11  -9   6   58.27    6.56
 -11   9  -6   52.49    7.37
 -11   9  -6   57.53    7.31
  10 -10  -6   39.44    6.79
  10 -10  -6   48.64    7.03
 -10  10   6   46.77    6.64
 -10  10   6   36.93    5.87
 -10  10   6   46.70    6.70
  10  10  -6   45.98    5.36
   8 -10  -6   66.60    7.90
   8 -10  -6   49.33    6.97
   8 -10  -6   57.85    6.72
  -8  10   6   64.02    7.08
  -8  10   6   44.66    5.99
   8  10  -6   62.08    5.60
  -8  10   6   57.93    6.62
  -6 -10   6  123.10    6.69
   6 -10  -6  127.22    7.95
   6 -10  -6  112.37    9.21
   6 -10  -6  123.35    9.63
  -6  10   6  128.01    8.31
  -6  10   6  128.27    9.25
   6  10  -6  127.71    7.25
  -6  10   6  107.82    8.06
   4 -10  -6   28.15    5.89
   4 -10  -6   34.20    5.52
  -4 -10   6   29.21    3.63
   4  10  -6   29.99    2.97
  -4  10   6   26.52    4.86
  -4  10   6   22.57    3.89
  -4  10   6   26.38    3.69
   2 -10  -6  230.37   13.05
  -2 -10   6  223.51   11.52
   2 -10  -6  233.53   13.01
  -2 -10   6  245.67   14.49
   2  10  -6  221.57   12.97
  -2  10   6  240.16   12.32
  -2  10   6  230.96   11.69
  -2  10   6  242.54   11.13
   0 -10  -6   82.81    5.41
   0 -10  -6   81.60    6.73
   0 -10   6   67.73    5.87
   0 -10   6   90.03    6.42
   0 -10  -6   73.25    7.51
   0  10   6   79.94    6.07
   0  10   6   75.68    4.87
   0  10   6   74.59    5.53
   2 -10   6   14.84    3.43
  -2 -10  -6   12.02    3.99
  -2 -10  -6   21.83    3.38
   2 -10   6   19.31    3.83
   2  10   6   21.05    2.82
   2  10   6   12.10    3.07
  -2  10  -6   21.40    4.30
   2  10   6   18.00    2.38
   4 -10   6   28.66    4.38
  -4 -10  -6   34.29    5.96
   4 -10   6   34.14    4.65
  -4 -10  -6   24.42    3.91
  -4 -10  -6   23.92    5.49
  -4  10  -6   33.67    5.48
   4  10   6   32.85    3.68
   4  10   6   26.38    3.67
  -4  10  -6   32.53    5.05
   4  10   6   24.76    2.72
  -6 -10  -6   69.56    6.83
   6 -10   6   80.80    8.31
  -6 -10  -6   93.88    8.52
  -6 -10  -6  100.92    8.92
   6 -10   6   86.44    7.44
  -6  10  -6   86.98    8.09
   6  10   6   95.69    6.26
  -6  10  -6   89.49    8.35
   6  10   6   91.12    4.80
   6  10   6   88.76    5.52
   8 -10   6   46.35    4.97
  -8 -10  -6   31.86    6.20
   8 -10   6   29.77    5.76
  -8 -10  -6   26.70    6.00
  -8 -10  -6   31.67    5.81
  -8  10  -6   30.14    6.07
  -8  10  -6   36.86    6.42
   8  10   6   36.60    3.36
   8  10   6   37.12    3.83
   8  10   6   33.25    3.39
 -10 -10  -6   19.63    5.98
  10 -10   6   17.68    5.42
 -10 -10  -6   21.06    5.74
 -10  10  -6   31.66    6.44
 -10  10  -6   22.53    5.65
   9 -11  -6    2.71    4.40
   9 -11  -6    0.89    3.87
   9 -11  -6   -3.74    4.31
   9  11  -6    2.32    3.35
  -9  11   6    4.76    4.18
  -9  11   6   -1.50    3.49
  -9  11   6   -1.63    3.81
   7 -11  -6   54.25    7.07
   7 -11  -6   57.15    7.42
  -7  11   6   51.19    6.25
   7  11  -6   54.64    5.57
  -7  11   6   37.37    5.97
  -7  11   6   56.77    6.62
   5 -11  -6  173.35   12.00
   5 -11  -6  166.74   11.65
  -5 -11   6  179.70    9.20
  -5  11   6  167.55   10.03
   5  11  -6  175.52    8.60
  -5  11   6  173.11   11.40
  -5  11   6  174.90   11.53
  -3 -11   6   52.22    5.32
   3 -11  -6   54.53    7.10
   3 -11  -6   52.33    6.88
  -3  11   6   60.76    5.72
  -3  11   6   50.04    6.49
   3  11  -6   58.57    6.31
  -1 -11   6    2.64    2.82
   1 -11  -6    6.78    4.03
   1 -11  -6   -3.80    3.41
  -1  11   6    2.46    2.69
   1  11  -6    0.52    3.06
  -1  11   6   -3.69    3.36
  -1  11   6    3.39    1.95
  -1 -11  -6   30.73    5.42
   1 -11   6   27.79    4.33
  -1 -11  -6   40.79    4.34
  -1 -11  -6   35.25    5.80
   1 -11   6   48.54    5.11
   1  11   6   36.50    4.27
   1  11   6   38.51    3.57
  -1  11  -6   36.28    4.90
   1  11   6   38.21    4.47
  -3 -11  -6   91.67    8.32
   3 -11   6   80.02   10.73
  -3 -11  -6   76.08    8.07
  -3 -11  -6   88.48    6.56
   3 -11   6   87.72    7.68
   3  11   6   86.62    5.91
   3  11   6   87.35    4.75
  -3  11  -6   75.85    7.55
   3  11   6   91.50    6.80
  -5 -11  -6   99.93    9.36
  -5 -11  -6  103.55    9.21
  -5 -11  -6  107.55    7.87
   5 -11   6   89.95    8.80
   5  11   6   94.85    6.97
  -5  11  -6  103.42    9.10
   5  11   6  106.83    6.49
  -5  11  -6   92.32    8.46
   5  11   6  108.30    5.06
  -7 -11  -6    2.03    4.03
  -7 -11  -6   -5.07    4.42
   7 -11   6   -0.16    4.29
  -7 -11  -6    2.23    4.91
  -7  11  -6   -2.60    3.88
   7  11   6    1.76    3.01
   7  11   6    4.45    2.58
  -7  11  -6    5.06    4.49
   9 -11   6   46.89    7.48
  -9 -11  -6   53.61    8.37
  -9 -11  -6   42.77    6.90
  -9 -11  -6   52.89    7.84
  -9  11  -6   60.39    7.71
  -9  11  -6   46.72    6.95
   8 -12  -6   62.33    8.03
   8 -12  -6   39.27    7.60
   8  12  -6   53.83    6.01
  -8  12   6   39.19    6.72
  -8  12   6   40.81    5.97
  -8  12   6   47.39    6.85
   6 -12  -6   -0.50    4.46
  -6 -12   6    1.05    3.30
   6 -12  -6   -0.15    4.39
  -6  12   6    6.85    4.37
  -6  12   6    3.32    3.29
  -6  12   6    3.30    4.08
   4 -12  -6    4.03    4.47
  -4 -12   6   -3.53    2.98
   4 -12  -6    4.42    4.52
   4  12  -6    1.35    3.53
  -4  12   6    2.14    4.06
  -4  12   6    0.04    4.27
  -4  12   6   -0.54    2.81
  -2 -12   6   48.82    5.41
   2 -12  -6   48.92    6.92
   2 -12  -6   46.32    6.63
   2  12  -6   41.18    5.60
  -2  12   6   49.10    5.55
  -2  12   6   49.53    6.40
  -2  12   6   42.94    4.97
   0 -12  -6  122.15   10.11
   0 -12   6  133.31    8.84
   0 -12  -6  130.59    8.05
   0 -12  -6  123.16   10.46
   0  12   6  132.82    8.25
   0  12  -6  139.47    9.28
   0  12   6  140.32    7.16
   0  12   6  117.12    9.57
   2 -12   6   27.37    5.44
  -2 -12  -6   28.28    5.49
  -2 -12  -6   27.68    4.34
  -2 -12  -6   24.28    5.94
   2  12   6   27.08    3.21
   2  12   6   28.40    3.99
   2  12   6   30.65    5.49
  -2  12  -6   25.18    5.00
  -4 -12  -6    7.23    4.66
   4 -12   6   14.91    4.94
  -4 -12  -6    4.81    5.07
  -4  12  -6   14.34    4.47
  -4  12  -6   17.23    5.24
   4  12   6   16.80    3.84
   4  12   6   17.28    3.33
   4  12   6   15.28    1.94
  -6 -12  -6   83.02    8.53
  -6 -12  -6   71.93    8.78
  -6 -12  -6   83.60    9.37
   6 -12   6   99.05    9.69
  -6  12  -6   87.03    9.68
  -6  12  -6   81.38    8.68
   6  12   6   82.87    6.29
   6  12   6   82.47    6.83
  -5 -13   6   15.44    4.24
   5 -13  -6    9.73    5.08
   5 -13  -6   10.43    5.20
  -5  13   6    2.30    4.78
  -5  13   6   13.27    5.29
   5  13  -6   11.94    4.04
  -5  13   6   15.06    3.95
   3 -13  -6   10.46    5.22
   3 -13  -6    6.55    5.06
  -3 -13   6   14.20    4.03
   3  13  -6   10.64    4.20
  -3  13   6   11.97    3.56
  -3  13   6    9.97    5.20
  -3  13   6   17.11    5.04
   1 -13  -6   -0.98    4.42
  -1 -13   6    3.49    4.22
   1 -13  -6    6.26    4.94
   1  13  -6    9.21    3.88
  -1  13   6    3.32    2.94
  -1  13   6    0.71    4.04
  -1  13   6    8.55    4.79
  -1 -13  -6   17.75    5.34
   1 -13   6   23.36    5.70
  -1 -13  -6   17.80    4.18
  -1 -13  -6   16.06    5.28
   1  13   6   19.50    3.83
  -1  13  -6   10.44    4.37
   1  13   6   12.95    4.84
   1  13   6   19.16    2.96
  -3 -13  -6   34.24    5.63
  -3 -13  -6   25.09    6.12
  -3 -13  -6   28.67    6.54
   3 -13   6   24.28    6.09
   3  13   6   24.95    5.50
  -3  13  -6   32.17    6.27
   3  13   6   33.76    3.10
  -3  13  -6   26.61    5.62
   3  13   6   34.73    4.46
 -16   0   7    1.40    4.77
 -16   0   7   -2.17    4.24
  16   0  -7    1.29    4.54
 -16   0   7    1.27    6.36
 -16   0   7   -2.45    3.28
  14   0  -7    3.16    4.31
 -14   0   7   -2.81    2.57
 -14   0   7   -6.64    3.81
  14   0  -7   -1.71    1.91
 -14   0   7    0.57    3.39
 -14   0   7    3.75    3.64
 -12   0   7    0.09    2.79
  12   0  -7    3.13    3.89
 -12   0   7    3.65    3.29
 -12   0   7    1.77    2.47
  12   0  -7   -2.50    1.57
  10   0  -7    1.04    2.27
 -10   0   7    1.06    2.25
 -10   0   7   -1.98    1.92
  10   0  -7    1.15    1.35
 -10   0   7    0.77    2.48
  -8   0   7   -0.64    1.85
   8   0  -7   -1.37    1.86
  -8   0   7   -0.94    2.02
  -8   0   7   -1.60    1.59
   8   0  -7    0.45    1.09
  -6   0   7   -1.77    1.49
  -6   0   7   -1.81    1.33
  -6   0   7    1.95    1.80
   6   0  -7   -1.09    1.71
   6   0  -7    1.78    1.06
  -4   0   7   -0.61    1.46
  -4   0   7   -0.14    1.32
  -4   0   7    2.42    1.45
   4   0  -7   -0.97    1.62
   4   0  -7    0.16    1.36
   4   0  -7    0.18    1.00
  -2   0   7    1.04    1.39
  -2   0   7    0.87    1.42
   2   0  -7   -1.64    1.35
   2   0  -7    0.74    1.24
   0   0   7    1.40    1.25
   0   0   7   -0.07    1.24
   0   0  -7    1.69    1.24
   2   0   7   -0.02    1.21
  -2   0  -7    2.30    1.75
   2   0   7    0.07    1.32
  -2   0  -7   -1.61    1.19
  -4   0  -7    1.89    1.88
   4   0   7   -0.97    1.47
   4   0   7   -1.31    1.12
  -4   0  -7   -1.39    1.32
  -4   0  -7   -0.78    1.00
  -6   0  -7    0.35    1.77
   6   0   7    1.36    1.78
  -6   0  -7    0.87    2.01
   6   0   7   -1.27    1.25
  -6   0  -7   -0.12    1.89
  -8   0  -7    3.33    2.16
  -8   0  -7   -0.87    1.43
  -8   0  -7    1.03    2.04
   8   0   7   -1.10    1.75
  -8   0  -7    1.20    2.37
  10   0   7   -4.53    2.13
 -10   0  -7   -2.48    1.77
 -10   0  -7   -1.59    2.19
 -10   0  -7   -0.56    2.79
 -12   0  -7   -1.14    2.99
 -12   0  -7   -1.28    3.74
  12   0   7   -1.45    3.02
 -12   0  -7   -2.42    2.32
 -14   0  -7   -9.81    3.74
 -14   0  -7   -6.69    4.73
 -14   0  -7    0.34    3.04
  14   0   7   -4.33    3.27
 -15  -1   7   -0.06    2.98
 -15  -1   7    3.49    3.86
 -15  -1   7   -1.60    4.25
  15  -1  -7   -5.38    4.10
  15  -1  -7   -0.20    2.56
 -15  -1   7    1.13    4.36
  15   1  -7   -3.96    4.13
 -15   1   7    1.92    4.48
 -15   1   7   -4.75    4.91
 -15   1   7    8.09    4.07
 -13  -1   7   -0.57    3.23
 -13  -1   7   -1.33    2.61
  13  -1  -7   -0.46    3.31
  13  -1  -7    3.13    2.20
 -13  -1   7   -3.12    2.56
 -13  -1   7    5.67    3.59
 -13   1   7    5.30    3.46
  13   1  -7    2.08    3.87
 -13   1   7    4.11    3.43
 -13   1   7   -1.44    3.07
  11  -1  -7   -0.11    1.74
  11  -1  -7    3.87    2.70
 -11  -1   7   -1.31    2.89
 -11  -1   7    2.61    2.39
 -11  -1   7   -2.21    1.99
 -11   1   7   -2.39    2.14
 -11   1   7    8.18    2.44
  11   1  -7    0.09    2.75
 -11   1   7   -0.69    2.58
  -9  -1   7   -0.33    1.98
   9  -1  -7   -3.28    2.06
  -9  -1   7    2.11    1.67
   9  -1  -7    0.82    1.48
  -9  -1   7   -0.56    2.18
  -9   1   7    3.26    2.14
  -9   1   7   -0.42    1.83
  -9   1   7   -0.16    1.92
   9   1  -7    0.09    0.84
   9   1  -7   -1.39    2.12
   7  -1  -7   23.98    3.55
  -7  -1   7   25.21    3.21
  -7  -1   7   18.68    2.98
  -7  -1   7   19.93    2.97
   7  -1  -7   23.54    2.53
  -7   1   7   23.63    3.24
   7   1  -7   20.18    3.17
  -7   1   7   23.12    3.47
  -7   1   7   15.64    2.64
   5  -1  -7   -0.74    1.64
  -5  -1   7   -0.03    1.40
  -5  -1   7   -0.81    1.73
   5  -1  -7    0.80    1.16
  -5  -1   7    0.80    1.68
   5  -1  -7    0.85    1.48
   5   1  -7   -0.84    1.41
  -5   1   7    1.45    1.45
   5   1  -7    2.64    1.83
  -5   1   7    0.40    1.58
  -5   1   7   -0.16    1.56
   3  -1  -7   15.26    2.17
   3  -1  -7   14.96    2.28
   3  -1  -7   16.07    2.55
  -3  -1   7   18.53    2.73
  -3  -1   7   16.26    2.54
   3   1  -7   15.98    2.21
  -3   1   7   16.83    2.13
  -3   1   7   14.83    2.45
   3   1  -7   15.64    2.60
  -3   1   7   13.71    2.23
   1  -1  -7   10.32    1.96
   1  -1  -7   11.41    2.00
   1  -1  -7   11.95    2.22
  -1  -1   7   15.56    2.42
  -1  -1   7   12.48    2.09
   1   1  -7   12.12    2.12
  -1   1   7   15.00    2.21
  -1   1   7   13.56    2.22
   1   1  -7   16.31    2.01
  -1  -1  -7   84.65    5.36
  -1  -1  -7   85.60    5.06
   1  -1   7   87.77    5.06
   1  -1   7   81.28    5.27
   1   1   7   85.28    5.16
   1   1   7   89.05    4.95
  -1   1  -7   87.93    5.47
  -1   1  -7   89.50    4.75
  -3  -1  -7    2.37    1.74
   3  -1   7    0.53    1.51
  -3  -1  -7    0.75    1.48
  -3  -1  -7   -0.68    0.68
  -3  -1  -7   -0.79    0.74
   3  -1   7    1.01    1.26
  -3   1  -7   -1.01    1.59
   3   1   7   -0.11    1.32
  -3   1  -7   -0.01    1.25
   3   1   7    1.25    1.20
  -5  -1  -7   -0.84    1.80
   5  -1   7    2.67    1.40
   5  -1   7    2.43    1.77
  -5  -1  -7    2.03    1.78
  -5  -1  -7    0.50    1.64
  -5   1  -7    1.82    1.71
   5   1   7    4.00    1.31
   5   1   7    1.96    1.58
  -5   1  -7    2.10    2.07
  -5   1  -7    4.98    1.38
  -7  -1  -7   16.33    3.07
   7  -1   7   11.92    2.83
  -7  -1  -7   12.66    2.82
  -7  -1  -7   12.81    1.30
  -7  -1  -7    9.66    2.74
  -7   1  -7   14.26    2.85
  -7   1  -7    7.60    2.57
   7   1   7   17.91    2.78
  -7   1  -7   11.52    2.18
  -9  -1  -7   18.95    3.50
   9  -1   7   14.33    3.11
  -9  -1  -7   10.05    2.92
  -9  -1  -7   13.62    3.37
  -9  -1  -7   14.11    1.96
  -9   1  -7    7.91    2.99
  -9   1  -7   13.05    3.04
  -9   1  -7   13.77    2.24
   9   1   7   14.22    2.88
 -11  -1  -7    2.29    3.26
 -11  -1  -7    3.92    1.96
  11  -1   7    7.12    3.59
 -11  -1  -7   -0.12    3.29
  11   1   7    0.32    3.28
 -11   1  -7    0.66    2.28
 -11   1  -7    3.36    3.22
 -11   1  -7    2.63    3.46
  13  -1   7   -2.67    3.52
 -13  -1  -7    2.77    3.88
 -13  -1  -7    5.67    4.50
 -13  -1  -7    5.58    2.79
  13   1   7    6.07    4.05
 -13   1  -7    1.09    3.73
 -13   1  -7    3.27    2.77
 -13   1  -7    5.82    4.29
 -14  -2   7    0.41    3.81
  14  -2  -7    8.02    4.27
 -14  -2   7   -6.95    2.67
  14  -2  -7    2.09    2.81
 -14  -2   7    1.67    3.86
 -14   2   7    5.39    4.37
 -14   2   7    0.40    4.62
  14   2  -7    6.83    4.67
 -14   2   7   -0.42    3.74
 -12  -2   7   28.30    3.93
 -12  -2   7   30.31    5.13
 -12  -2   7   32.62    4.84
  12  -2  -7   29.06    3.56
  12  -2  -7   33.67    5.87
 -12  -2   7   28.94    4.37
 -12   2   7   36.91    4.62
  12   2  -7   30.18    5.71
 -12   2   7   28.85    5.21
 -12   2   7   33.33    5.00
  10  -2  -7   94.10    6.96
 -10  -2   7   83.43    6.42
 -10  -2   7   93.63    6.78
  10  -2  -7   88.05    5.42
 -10  -2   7   93.06    6.36
  10   2  -7   92.14    6.77
 -10   2   7   99.20    6.54
 -10   2   7   80.38    6.08
 -10   2   7   81.41    6.48
   8  -2  -7    0.88    1.52
  -8  -2   7    0.38    2.11
   8  -2  -7    3.71    2.31
  -8  -2   7    4.95    2.02
  -8  -2   7   -0.78    1.67
  -8   2   7   -1.94    2.00
  -8   2   7    2.60    1.95
   8   2  -7    0.31    2.02
  -8   2   7   -0.24    1.62
  -6  -2   7    0.52    1.85
  -6  -2   7   -0.98    1.75
   6  -2  -7   -0.31    1.36
   6  -2  -7    1.64    2.12
   6  -2  -7    0.75    1.72
  -6   2   7   -1.19    1.38
  -6   2   7   -0.50    1.71
  -6   2   7   -1.83    1.77
   6   2  -7    2.03    1.82
   4  -2  -7   16.69    2.76
   4  -2  -7   18.65    2.48
  -4  -2   7   18.91    2.80
  -4  -2   7   18.23    2.83
   4  -2  -7   24.71    3.38
   4   2  -7   19.19    2.43
  -4   2   7   19.22    2.72
   4   2  -7   18.56    2.78
  -4   2   7   26.21    3.11
  -4   2   7   19.23    2.35
  -2  -2   7  272.66   12.74
  -2  -2   7  298.87   12.94
   2  -2  -7  292.95   12.70
   2  -2  -7  264.17   12.90
   2  -2  -7  270.87   12.69
  -2   2   7  296.53   12.77
   2   2  -7  279.21   12.71
  -2   2   7  286.42   11.98
   2   2  -7  266.05   11.87
  -2   2   7  271.07   12.68
   0  -2  -7    3.46    1.66
   0  -2   7    3.36    1.51
   0  -2   7    3.48    1.67
   0  -2  -7    4.28    1.65
   0   2   7    4.24    1.56
   0   2   7    3.18    1.46
   0   2  -7    4.45    1.25
  -2  -2  -7   10.75    2.30
  -2  -2  -7    7.97    1.97
  -2  -2  -7    7.37    1.97
   2  -2   7    7.61    1.98
   2  -2   7   11.23    1.99
  -2   2  -7   10.26    1.57
  -2   2  -7    9.32    2.28
   2   2   7    6.19    1.55
   2   2   7   12.17    2.18
   4  -2   7   25.65    3.34
  -4  -2  -7   31.79    3.40
  -4  -2  -7   21.47    3.02
   4  -2   7   36.13    3.08
  -4  -2  -7   31.39    3.41
  -4   2  -7   32.68    3.75
   4   2   7   24.70    3.01
   4   2   7   31.47    2.65
  -4   2  -7   29.50    2.80
  -4   2  -7   30.17    2.91
  -6  -2  -7  121.89    7.39
  -6  -2  -7  123.58    6.85
   6  -2   7  121.64    7.41
  -6  -2  -7  121.30    7.30
  -6   2  -7  125.96    7.48
   6   2   7  115.03    6.92
   6   2   7  121.97    5.84
  -6   2  -7  115.68    6.27
  -8  -2  -7    7.26    2.46
  -8  -2  -7   10.67    2.65
   8  -2   7    2.70    2.25
  -8  -2  -7    6.78    2.83
   8   2   7    7.21    2.04
  -8   2  -7    8.81    2.15
  -8   2  -7    6.27    2.83
  -8   2  -7    6.83    2.34
  10  -2   7   10.82    3.91
 -10  -2  -7   21.19    3.84
 -10   2  -7   21.82    4.17
 -10   2  -7   18.51    2.91
  10   2   7   22.17    3.33
 -10   2  -7   13.33    4.07
  12  -2   7    5.94    3.52
 -12  -2  -7    5.23    2.21
 -12  -2  -7    2.32    3.97
 -12  -2  -7    4.83    4.05
  12   2   7   11.14    3.87
 -12   2  -7    6.09    2.86
 -12   2  -7    0.18    3.78
 -12   2  -7    5.71    3.96
  14  -2   7   18.67    5.36
 -14  -2  -7    9.35    5.29
  14  -2   7   12.87    4.61
  14   2   7   13.65    4.55
 -14   2  -7   16.29    5.39
 -14   2  -7    6.54    3.42
 -14   2  -7    4.30    4.15
 -15  -3   7   40.86    6.40
  15  -3  -7   33.04    6.36
  15  -3  -7   46.01    5.11
 -15  -3   7   41.82    6.44
 -15  -3   7   42.46    6.42
 -15   3   7   37.00    6.63
 -15   3   7   33.91    6.51
 -15   3   7   39.74    6.40
  13  -3  -7  129.94    7.77
 -13  -3   7  124.32    9.12
 -13  -3   7  113.35    7.92
 -13  -3   7  125.61    8.14
  13  -3  -7  104.08    9.42
 -13   3   7  115.06    9.44
 -13   3   7  120.71    9.95
  13   3  -7  110.75    9.69
 -13   3   7  120.49    9.41
 -11  -3   7   21.82    3.60
 -11  -3   7   19.17    4.65
  11  -3  -7   19.06    3.14
  11   3  -7   20.75    4.04
 -11   3   7   19.04    3.62
 -11   3   7   22.48    3.72
 -11   3   7   12.79    3.42
   9  -3  -7   42.16    4.98
  -9  -3   7   58.65    5.35
   9  -3  -7   41.80    3.12
   9  -3  -7   49.65    4.19
  -9  -3   7   46.85    4.45
   9   3  -7   45.95    4.79
  -9   3   7   40.98    4.43
  -9   3   7   45.73    4.67
  -9   3   7   47.36    4.74
   7  -3  -7  231.12   10.71
  -7  -3   7  216.59   11.02
   7  -3  -7  225.79    9.20
   7  -3  -7  208.34   11.28
   7  -3  -7  222.92   11.60
  -7  -3   7  228.71   11.29
  -7   3   7  218.83   11.30
   7   3  -7  241.22   11.50
  -7   3   7  219.12   11.29
  -7   3   7  237.14   11.14
   5  -3  -7   65.05    3.76
   5  -3  -7   65.44    5.12
  -5  -3   7   66.53    3.36
  -5  -3   7   69.79    5.05
   5  -3  -7   80.45    5.32
  -5  -3   7   72.46    4.93
   5  -3  -7   69.87    4.63
  -5   3   7   73.22    5.15
   5   3  -7   70.94    5.00
  -5   3   7   69.99    4.54
  -5   3   7   67.79    5.06
   3  -3  -7    3.90    1.93
  -3  -3   7    0.84    1.70
   3  -3  -7    4.32    1.97
  -3  -3   7    3.04    1.82
   3  -3  -7    5.50    1.80
   3   3  -7    5.03    1.84
  -3   3   7    5.90    1.99
  -3   3   7    5.12    1.63
   3   3  -7    8.65    1.37
  -3   3   7    6.81    1.54
   1  -3  -7   20.86    2.46
  -1  -3   7   25.43    3.03
   1  -3  -7   23.59    3.07
   1  -3  -7   23.27    3.09
  -1  -3   7   24.48    2.85
   1  -3  -7   20.79    2.98
  -1   3   7   23.32    2.81
  -1   3   7   26.93    2.15
   1   3  -7   28.95    2.07
  -1   3   7   29.68    2.98
   1   3  -7   27.49    2.86
  -1  -3  -7   52.03    4.27
  -1  -3  -7   45.98    2.85
  -1  -3  -7   51.86    3.67
  -1  -3  -7   52.61    4.10
   1  -3   7   43.50    3.88
   1  -3   7   44.98    3.78
   1   3   7   46.84    3.52
  -1   3  -7   45.87    2.78
   1   3   7   41.55    3.49
  -1   3  -7   39.54    3.80
   3  -3   7  248.74   12.10
  -3  -3  -7  260.34   11.37
  -3  -3  -7  252.24   12.12
  -3  -3  -7  222.95   11.60
   3  -3   7  254.97   11.65
  -3  -3  -7  282.59   12.64
  -3   3  -7  251.75   12.30
   3   3   7  259.30   11.21
   3   3   7  241.04   11.55
  -3   3  -7  255.09   10.97
  -5  -3  -7   80.81    5.42
   5  -3   7   64.87    5.37
  -5  -3  -7   79.82    5.03
  -5  -3  -7   75.67    5.46
  -5   3  -7   69.29    4.68
  -5   3  -7   76.26    5.58
   5   3   7   73.40    4.90
   5   3   7   76.23    4.22
  -7  -3  -7   53.95    4.99
   7  -3   7   58.12    5.29
  -7  -3  -7   48.78    4.90
  -7  -3  -7   63.93    5.28
  -7   3  -7   57.78    5.36
   7   3   7   54.84    4.48
   7   3   7   63.00    3.35
  -7   3  -7   59.65    4.38
   9  -3   7  180.43   10.39
  -9  -3  -7  195.07    9.75
  -9  -3  -7  193.16   10.76
   9   3   7  182.76    9.78
  -9   3  -7  180.45   10.55
  -9   3  -7  191.71    9.54
  -9   3  -7  184.54   10.61
 -11  -3  -7   51.23    6.50
  11  -3   7   41.12    5.79
 -11   3  -7   49.40    5.82
  11   3   7   45.93    5.41
 -11   3  -7   51.03    4.94
 -11   3  -7   48.34    6.30
  13  -3   7   -4.09    4.09
  13  -3   7    2.35    3.91
 -13  -3  -7    0.17    3.75
 -13   3  -7   -1.50    3.91
  13   3   7   -2.89    3.40
 -13   3  -7    0.59    3.03
 -13   3  -7    0.88    3.97
  14  -4  -7    3.08    4.72
 -14  -4   7    1.38    4.60
 -14  -4   7    4.80    4.40
 -14  -4   7    3.44    4.50
  14  -4  -7    5.19    3.16
  14   4  -7    1.69    4.47
 -14   4   7    3.41    4.26
 -14   4   7    8.61    4.85
 -14   4   7   -3.17    3.90
 -12  -4   7   72.79    6.33
  12  -4  -7   69.29    8.06
  12  -4  -7   72.73    6.14
 -12  -4   7   78.72    7.39
 -12  -4   7   70.07    6.13
  12   4  -7   75.30    8.17
 -12   4   7   68.68    7.69
 -12   4   7   74.91    7.60
 -12   4   7   64.33    7.60
 -10  -4   7  150.52    8.95
  10  -4  -7  150.33    9.28
  10  -4  -7  136.16    8.25
 -10  -4   7  153.77    8.64
  10   4  -7  141.13    8.88
 -10   4   7  135.42    8.66
 -10   4   7  148.19    8.74
 -10   4   7  155.18    9.06
  -8  -4   7   84.54    6.22
   8  -4  -7   82.93    6.42
   8  -4  -7   93.19    5.89
   8  -4  -7   88.39    6.38
  -8  -4   7   92.56    6.17
  -8   4   7   80.55    6.18
   8   4  -7   80.20    6.07
  -8   4   7   83.33    6.16
  -8   4   7   95.66    6.25
  -6  -4   7   49.65    4.61
   6  -4  -7   47.63    4.66
   6  -4  -7   39.63    4.56
  -6  -4   7   53.30    4.60
   6  -4  -7   49.09    4.16
  -6   4   7   48.26    4.64
  -6   4   7   50.17    4.34
  -6   4   7   51.47    4.19
   6   4  -7   42.95    4.32
  -4  -4   7  171.46    9.18
   4  -4  -7  180.19    9.13
   4  -4  -7  180.69    9.49
   4  -4  -7  177.30    7.44
   4  -4  -7  174.68    9.46
   4  -4  -7  188.11    7.58
  -4  -4   7  184.49    9.23
  -4   4   7  184.71    8.71
  -4   4   7  173.86    9.09
   4   4  -7  187.55    9.09
   4   4  -7  181.99    8.12
  -4   4   7  176.91    9.30
   2  -4  -7   83.43    4.24
   2  -4  -7   86.36    5.50
   2  -4  -7   80.89    5.42
   2  -4  -7   73.85    5.28
  -2  -4   7   70.75    5.16
  -2  -4   7   71.93    5.19
  -2   4   7   84.42    4.50
  -2   4   7   77.80    5.06
  -2   4   7   81.33    5.19
   2   4  -7   84.05    3.89
   2   4  -7   87.22    5.06
   0  -4  -7   26.68    2.71
   0  -4  -7   23.93    3.35
   0  -4   7   28.52    3.45
   0  -4  -7   25.39    3.46
   0  -4   7   26.05    3.16
   0   4  -7   25.33    1.74
   0   4   7   24.05    2.81
   0   4   7   26.67    2.02
   0   4   7   25.97    3.01
  -2  -4  -7   10.30    2.07
   2  -4   7    4.73    1.79
  -2  -4  -7   11.20    2.38
  -2  -4  -7    3.97    2.13
  -2  -4  -7    8.49    2.02
   2  -4   7    7.21    2.03
  -2   4  -7    6.46    2.31
   2   4   7    6.82    1.65
   2   4   7    9.06    1.97
  -4  -4  -7  188.20   10.24
   4  -4   7  197.12    9.93
  -4  -4  -7  186.72   10.03
  -4  -4  -7  194.96    9.64
  -4   4  -7  194.89   10.14
   4   4   7  181.91    8.70
   4   4   7  187.89    9.17
  -6  -4  -7  128.80    7.91
   6  -4   7  121.97    7.69
  -6  -4  -7  129.86    7.66
  -6   4  -7  121.76    7.14
   6   4   7  131.01    6.08
   6   4   7  127.21    6.91
  -6   4  -7  125.28    8.00
  -8  -4  -7   70.30    6.11
  -8  -4  -7   72.57    5.73
   8  -4   7   74.15    6.03
   8   4   7   73.08    5.15
  -8   4  -7   64.20    5.34
  -8   4  -7   71.79    6.31
   8   4   7   72.22    3.41
 -10  -4  -7    0.31    3.80
 -10  -4  -7    0.48    3.72
 -10   4  -7    5.50    2.81
 -10   4  -7    4.44    2.44
  10   4   7    2.52    2.84
 -10   4  -7   -0.10    3.52
 -12  -4  -7  127.81    9.88
  12  -4   7  135.36   10.31
 -12   4  -7  145.75    9.92
 -12   4  -7  119.48    9.96
  12   4   7  115.15    8.47
 -12   4  -7  131.53    8.31
 -14  -4  -7  102.45    9.42
  14  -4   7   64.32    7.85
 -14   4  -7   66.69    8.56
  14   4   7   71.63    7.64
 -14   4  -7   74.93    9.32
 -13  -5   7   86.32    8.59
  13  -5  -7   92.80    9.51
  13  -5  -7   85.18    7.07
 -13  -5   7   88.47    8.41
 -13   5   7   82.94    8.50
 -13   5   7   87.15    8.85
 -13   5   7   85.71    8.43
  13   5  -7   81.48    8.78
 -11  -5   7   20.11    4.04
  11  -5  -7   17.41    4.53
 -11  -5   7   11.30    2.96
  11  -5  -7   12.92    3.42
  11  -5  -7   17.17    4.42
 -11   5   7   21.15    4.87
 -11   5   7   19.62    4.70
 -11   5   7   11.56    4.14
   9  -5  -7    0.38    2.68
  -9  -5   7    4.99    2.35
   9  -5  -7    1.41    2.48
  -9  -5   7    2.72    2.71
   9  -5  -7    9.55    2.93
   9   5  -7    7.37    2.69
  -9   5   7    2.97    2.42
  -9   5   7    7.38    2.51
  -9   5   7   -0.58    2.12
  -7  -5   7  279.30   12.97
   7  -5  -7  274.01   13.48
   7  -5  -7  259.38   13.45
   7  -5  -7  264.90   12.90
  -7  -5   7  267.20   12.99
   7   5  -7  253.68   12.85
  -7   5   7  270.74   13.13
  -7   5   7  269.61   12.89
  -7   5   7  278.98   13.43
   5  -5  -7  249.54   12.13
  -5  -5   7  245.17   12.23
  -5  -5   7  258.19   12.14
   5  -5  -7  243.85   12.34
   5  -5  -7  246.98   12.51
  -5   5   7  250.58   12.07
  -5   5   7  241.81   12.28
   5   5  -7  270.14   12.02
  -5   5   7  243.10   11.73
   3  -5  -7   -1.17    1.74
   3  -5  -7    1.99    1.78
  -3  -5   7    2.65    2.00
  -3  -5   7    2.07    1.73
   3  -5  -7   -0.51    1.76
   3  -5  -7    0.27    0.94
  -3   5   7    0.72    1.35
   3   5  -7   -0.79    1.50
   3   5  -7    0.65    0.85
  -3   5   7   -0.53    1.28
  -3   5   7   -0.19    1.77
  -1  -5   7    0.21    1.68
   1  -5  -7    2.67    1.43
  -1  -5   7    2.27    1.90
   1  -5  -7    1.73    1.74
   1  -5  -7    2.19    1.77
  -1   5   7   -0.52    1.42
  -1   5   7    3.78    1.26
  -1   5   7    1.88    1.64
   1   5  -7    3.68    1.65
   1  -5   7  279.58   13.49
  -1  -5  -7  287.29   12.85
  -1  -5  -7  302.85   13.92
   1  -5   7  288.26   13.51
  -1  -5  -7  273.75   13.83
  -1   5  -7  276.19   13.64
   1   5   7  286.83   13.09
   1   5   7  310.26   11.81
   1   5   7  289.59   12.86
  -3  -5  -7  171.42    8.69
  -3  -5  -7  176.49    7.82
   3  -5   7  168.62    9.14
  -3  -5  -7  167.06    9.20
  -3  -5  -7  160.44    9.25
   3   5   7  171.81    8.20
  -3   5  -7  174.02    9.43
   3   5   7  154.54    8.07
   5  -5   7   39.23    4.57
  -5  -5  -7   46.94    3.64
  -5  -5  -7   35.91    4.34
  -5  -5  -7   50.16    4.54
  -5  -5  -7   38.91    4.72
  -5   5  -7   38.35    4.26
   5   5   7   46.71    3.38
   5   5   7   45.60    3.64
  -5   5  -7   46.99    4.86
  -7  -5  -7   40.23    5.02
  -7  -5  -7   50.68    4.79
   7  -5   7   42.01    4.91
  -7   5  -7   57.42    4.93
   7   5   7   43.72    3.83
   7   5   7   43.38    3.04
  -7   5  -7   41.39    5.03
   9  -5   7  135.52    8.82
  -9  -5  -7  141.24    9.98
  -9   5  -7  135.43    8.21
  -9   5  -7  145.46    9.32
   9   5   7  137.04    7.73
 -11  -5  -7  137.89   10.67
 -11  -5  -7  147.30   10.40
  11  -5   7  141.59    9.89
  11   5   7  135.97    8.80
 -11   5  -7  136.66   10.21
 -11   5  -7  148.05    8.85
  13  -5   7    8.02    4.86
  13  -5   7   13.14    4.80
 -13  -5  -7   14.12    4.99
 -13   5  -7    7.53    5.58
  13   5   7    8.86    3.85
 -13   5  -7   16.87    4.97
 -13   5  -7   11.66    5.35
  14  -6  -7   33.88    6.79
 -14  -6   7   31.13    6.37
  14  -6  -7   42.37    6.48
 -14  -6   7   38.27    6.55
  14   6  -7   39.70    6.92
 -14   6   7   42.00    6.98
 -14   6   7   36.29    6.57
 -14   6   7   32.56    6.56
 -12  -6   7   67.06    8.01
  12  -6  -7   52.38    6.93
  12  -6  -7   48.06    6.71
  12  -6  -7   54.19    6.04
 -12   6   7   64.02    7.30
 -12   6   7   63.28    7.45
 -12   6   7   70.90    7.90
  12   6  -7   54.76    6.68
  10  -6  -7   55.57    6.07
 -10  -6   7   50.67    5.23
 -10  -6   7   57.99    5.77
  10  -6  -7   49.84    6.49
  10  -6  -7   44.06    5.18
 -10   6   7   43.04    5.81
  10   6  -7   53.95    5.32
 -10   6   7   45.22    6.14
 -10   6   7   44.62    6.68
   8  -6  -7   84.53    6.27
   8  -6  -7   84.01    6.58
   8  -6  -7   64.48    5.63
  -8  -6   7   73.72    6.21
  -8  -6   7   76.12    5.83
  -8   6   7   65.67    6.00
  -8   6   7   68.03    5.78
   8   6  -7   55.78    5.52
  -8   6   7   77.82    5.84
   6  -6  -7   20.52    3.26
  -6  -6   7   19.45    3.35
   6  -6  -7   22.08    3.67
  -6  -6   7   22.56    3.55
   6  -6  -7   19.33    3.39
  -6   6   7   14.55    2.74
   6   6  -7   17.94    2.90
  -6   6   7   22.38    3.70
  -6   6   7   16.73    2.94
   4  -6  -7  256.39   12.60
   4  -6  -7  245.52   12.14
  -4  -6   7  247.63   10.38
   4  -6  -7  234.19   12.05
  -4  -6   7  246.63   11.76
  -4  -6   7  228.27   11.99
  -4   6   7  247.67   11.45
   4   6  -7  255.80   11.51
  -4   6   7  238.04   11.64
   4   6  -7  239.64   10.04
  -4   6   7  234.89   12.00
   2  -6  -7  305.99   14.99
   2  -6  -7  320.57   15.23
   2  -6  -7  316.97   13.08
  -2  -6   7  317.74   14.58
  -2  -6   7  307.21   14.74
  -2   6   7  302.77   14.50
   2   6  -7  331.93   13.90
  -2   6   7  317.31   13.76
  -2   6   7  324.57   14.23
   0  -6  -7   95.98    5.14
   0  -6  -7   89.50    6.31
   0  -6  -7   84.58    6.11
   0  -6   7   82.74    6.01
   0   6  -7   79.44    5.93
   0   6   7   91.77    5.67
   0   6   7   92.91    5.33
   0   6   7   90.37    4.67
  -2  -6  -7   38.83    4.23
  -2  -6  -7   40.83    3.58
  -2  -6  -7   36.98    4.10
   2  -6   7   36.99    4.18
   2   6   7   33.29    3.18
   2   6   7   35.75    3.65
  -2   6  -7   35.66    4.21
   2   6   7   35.76    2.20
  -4  -6  -7  240.14   11.67
  -4  -6  -7  236.84   12.32
   4  -6   7  237.82   12.13
  -4  -6  -7  234.11   12.47
  -4   6  -7  236.00   12.26
   4   6   7  244.52   10.91
   4   6   7  236.99   10.91
   6  -6   7   52.86    5.34
  -6  -6  -7   55.14    5.04
  -6  -6  -7   50.69    5.11
  -6  -6  -7   54.24    5.39
   6   6   7   43.13    3.84
  -6   6  -7   61.38    5.58
  -6   6  -7   58.72    5.13
   6   6   7   50.43    3.70
   8  -6   7   14.70    3.41
  -8  -6  -7   18.67    3.58
  -8  -6  -7   19.08    4.40
  -8   6  -7   12.77    2.92
   8   6   7   15.40    2.63
  -8   6  -7   10.13    3.00
 -10  -6  -7   17.53    4.82
  10  -6   7   16.49    4.61
 -10  -6  -7   19.27    4.76
  10   6   7   13.51    5.03
 -10   6  -7   19.57    5.09
 -10   6  -7   18.58    3.68
  12  -6   7   43.67    6.74
 -12  -6  -7   49.89    6.99
  12  -6   7   43.38    5.84
 -12  -6  -7   44.35    7.32
  12   6   7   44.88    5.46
 -12   6  -7   53.81    6.80
 -12   6  -7   39.71    6.91
 -12   6  -7   36.53    6.29
  13  -7  -7   55.63    7.66
 -13  -7   7   43.36    6.27
  13  -7  -7   57.83    7.14
  13  -7  -7   42.50    7.15
 -13   7   7   52.95    7.28
  13   7  -7   52.33    7.26
 -13   7   7   47.02    7.02
 -13   7   7   48.28    7.21
  11  -7  -7    2.62    3.92
 -11  -7   7    7.20    4.63
  11  -7  -7    4.65    4.75
  11  -7  -7    5.36    4.31
 -11  -7   7   16.78    5.97
 -11   7   7    7.10    4.24
 -11   7   7    9.32    4.10
  11   7  -7   11.18    4.60
 -11   7   7   10.49    4.10
   9  -7  -7   32.24    5.59
   9  -7  -7   39.44    5.14
   9  -7  -7   43.91    5.24
  -9  -7   7   42.80    5.11
  -9  -7   7   58.51    6.32
   9   7  -7   37.26    4.49
  -9   7   7   36.15    5.14
  -9   7   7   44.34    6.18
  -9   7   7   32.89    5.39
   7  -7  -7   60.52    5.48
  -7  -7   7   66.13    5.34
  -7  -7   7   60.50    5.94
   7  -7  -7   67.21    5.92
   7  -7  -7   68.60    6.40
  -7   7   7   62.10    5.36
  -7   7   7   63.28    5.40
   7   7  -7   73.21    5.38
  -7   7   7   59.53    5.70
  -5  -7   7  104.12    5.06
   5  -7  -7  116.29    7.71
   5  -7  -7  103.66    7.03
  -5  -7   7  107.92    6.96
  -5  -7   7  106.20    7.10
   5  -7  -7  100.78    7.19
   5   7  -7  114.09    6.53
  -5   7   7  105.33    6.71
  -5   7   7  109.93    7.28
  -5   7   7  112.41    6.76
   3  -7  -7   36.42    4.65
   3  -7  -7   45.08    2.45
   3  -7  -7   38.65    4.44
  -3  -7   7   49.18    7.08
  -3  -7   7   48.18    3.71
  -3   7   7   48.72    3.98
   3   7  -7   39.95    3.71
  -3   7   7   39.83    4.25
  -3   7   7   38.13    3.78
   1  -7  -7   66.67    5.51
   1  -7  -7   65.24    4.21
   1  -7  -7   78.52    5.99
  -1  -7   7   71.04    5.63
  -1   7   7   75.83    4.52
  -1   7   7   66.40    5.23
  -1   7   7   74.60    4.84
   1  -7   7  136.01    7.92
  -1  -7  -7  136.58    7.04
  -1  -7  -7  124.48    8.21
  -1  -7  -7  138.33    8.36
  -1   7  -7  132.85    8.12
   1   7   7  132.24    7.00
   1   7   7  141.20    6.42
   1   7   7  132.90    7.46
  -3  -7  -7   95.51    6.90
  -3  -7  -7   86.76    6.51
  -3  -7  -7   83.00    5.84
   3  -7   7   87.33    6.55
   3   7   7   96.54    4.25
  -3   7  -7   97.20    6.78
   3   7   7   95.46    5.33
   3   7   7   94.22    5.75
   5  -7   7   15.31    3.45
  -5  -7  -7   10.83    2.84
  -5  -7  -7    5.98    2.64
  -5  -7  -7    7.75    2.86
  -5   7  -7   10.40    2.78
   5   7   7    9.02    1.99
   5   7   7   13.42    2.35
  -5   7  -7   14.54    3.19
   7  -7   7   33.05    4.68
  -7  -7  -7   27.40    4.39
  -7  -7  -7   21.68    4.66
   7   7   7   28.04    2.76
  -7   7  -7   19.37    3.67
   7   7   7   26.07    3.07
  -7   7  -7   27.27    5.04
   9  -7   7  116.73    7.72
  -9  -7  -7  140.55    9.87
  -9  -7  -7  124.47    9.97
   9  -7   7  137.48    9.15
   9   7   7  127.03    7.27
  -9   7  -7  139.73    8.80
  -9   7  -7  131.36   10.34
  11  -7   7   39.28    6.50
  11  -7   7   34.75    4.76
 -11  -7  -7   28.16    6.03
 -11  -7  -7   24.31    6.02
  11   7   7   28.83    4.23
 -11   7  -7   35.45    5.93
 -11   7  -7   26.53    6.11
  12  -8  -7   43.20    6.93
  12  -8  -7   52.69    7.33
  12  -8  -7   42.28    6.73
 -12   8   7   48.72    6.88
  12   8  -7   49.31    6.69
 -12   8   7   43.55    6.43
 -12   8   7   37.32    6.52
  10  -8  -7   64.57    7.59
 -10  -8   7   75.23    7.64
  10  -8  -7   66.61    8.10
  10  -8  -7   70.02    8.13
  10   8  -7   84.80    6.81
 -10   8   7   87.40    8.04
 -10   8   7   68.98    7.67
 -10   8   7   88.38    7.63
   8  -8  -7    2.38    2.82
   8  -8  -7   -1.44    3.26
  -8  -8   7    2.84    3.65
  -8   8   7    3.47    3.46
  -8   8   7    3.15    2.69
   8   8  -7    2.35    2.82
  -8   8   7    4.14    3.22
   6  -8  -7    5.99    2.72
   6  -8  -7    7.94    2.97
  -6  -8   7    6.72    3.17
   6   8  -7    6.39    2.59
  -6   8   7   10.15    2.89
  -4  -8   7   20.70    2.60
   4  -8  -7   15.53    3.47
  -4  -8   7   22.33    3.65
   4  -8  -7   20.89    3.54
   4  -8  -7   14.32    2.91
  -4   8   7   12.14    2.87
  -4   8   7   15.90    2.89
   4   8  -7   21.75    2.87
  -4   8   7   16.78    2.83
  -2  -8   7   96.68    6.89
   2  -8  -7  102.01    5.28
   2  -8  -7   95.27    7.17
   2  -8  -7  117.16    7.52
  -2   8   7   97.24    6.06
  -2   8   7  103.28    6.07
   2   8  -7  101.19    5.63
  -2   8   7  106.94    6.84
   0  -8  -7   21.58    3.93
   0  -8   7   13.59    2.90
   0  -8  -7   13.63    3.33
   0  -8  -7   20.24    2.67
   0  -8   7   23.11    3.75
   0   8   7   16.24    2.89
   0   8   7   16.18    2.50
   0   8  -7   14.51    3.18
   0   8   7   21.79    2.56
  -2  -8  -7   61.33    5.73
  -2  -8  -7   55.72    5.35
   2  -8   7   49.80    5.41
  -2  -8  -7   66.65    4.80
   2   8   7   60.24    3.69
   2   8   7   61.78    5.00
  -2   8  -7   55.93    5.36
   2   8   7   58.88    4.06
   4  -8   7    8.28    3.06
  -4  -8  -7   12.64    3.00
  -4  -8  -7   10.95    3.11
  -4  -8  -7   13.62    3.46
   4   8   7   13.56    2.09
   4   8   7    9.02    1.46
  -4   8  -7   14.36    3.53
   4   8   7   13.38    2.66
   6  -8   7   59.62    6.05
  -6  -8  -7   69.19    7.45
  -6  -8  -7   55.86    5.42
  -6  -8  -7   43.39    6.07
   6   8   7   56.97    4.05
   6   8   7   56.79    4.68
  -6   8  -7   54.17    5.62
  -6   8  -7   60.80    7.00
  -8  -8  -7   20.14    5.06
   8  -8   7   19.61    4.19
   8  -8   7   16.07    3.33
  -8  -8  -7   15.87    4.82
   8   8   7   23.78    2.61
  -8   8  -7   13.37    4.56
  -8   8  -7   15.03    4.75
   8   8   7   22.36    2.83
 -10  -8  -7   11.50    4.75
  10  -8   7   15.36    5.54
 -10  -8  -7   13.41    5.04
  10  -8   7   19.67    3.84
  10   8   7   13.79    3.66
 -10   8  -7   22.09    4.97
 -10   8  -7   12.40    5.14
  11  -9  -7   12.69    5.67
  11  -9  -7   10.34    5.25
  11  -9  -7   15.51    5.75
 -11   9   7   14.29    5.25
  11   9  -7   12.66    5.22
 -11   9   7    9.60    5.07
 -11   9   7   20.56    4.78
   9  -9  -7   46.11    6.73
   9  -9  -7   36.71    6.04
   9   9  -7   36.62    4.47
  -9   9   7   31.93    5.39
  -9   9   7   40.06    6.06
  -9   9   7   37.04    5.23
   7  -9  -7   30.74    5.70
   7  -9  -7   33.72    4.63
   7  -9  -7   42.49    6.27
  -7   9   7   36.96    4.54
   7   9  -7   42.21    4.56
  -7   9   7   33.11    5.49
  -7   9   7   34.49    4.76
  -5  -9   7    2.31    2.14
   5  -9  -7    2.28    2.56
  -5  -9   7    1.64    3.55
   5  -9  -7    6.39    3.81
   5  -9  -7    3.41    3.29
  -5   9   7   -0.15    3.30
  -5   9   7    3.59    2.70
   5   9  -7    4.56    2.37
  -5   9   7    2.49    2.36
  -3  -9   7    0.93    2.97
  -3  -9   7    3.35    2.25
  -3   9   7    3.69    1.78
   3   9  -7   -0.78    1.80
  -3   9   7    0.09    2.03
  -3   9   7    5.64    2.53
  -1  -9   7    4.47    2.91
   1  -9  -7    4.96    2.55
   1  -9  -7   -4.11    2.99
   1  -9  -7    0.44    1.89
  -1  -9   7    0.65    2.35
  -1   9   7   -1.17    1.84
  -1   9   7   -3.91    2.03
   1   9  -7   -2.00    2.23
  -1   9   7    3.53    1.67
   1  -9   7   13.89    2.99
  -1  -9  -7   10.87    2.48
   1  -9   7    4.04    2.99
  -1  -9  -7   11.90    3.59
   1   9   7   11.38    2.29
   1   9   7    7.69    1.97
   1   9   7    9.01    2.64
   3  -9   7   41.47    4.94
  -3  -9  -7   51.39    6.46
  -3  -9  -7   58.47    4.86
   3  -9   7   51.86    5.27
  -3  -9  -7   38.08    5.50
  -3   9  -7   41.35    5.61
   3   9   7   41.63    3.61
   3   9   7   46.82    4.74
   3   9   7   50.49    3.73
   5  -9   7   55.98    6.43
   5  -9   7   57.75    4.12
  -5  -9  -7   56.00    6.55
  -5  -9  -7   51.12    5.45
  -5  -9  -7   63.99    7.38
  -5   9  -7   57.49    6.71
   5   9   7   63.23    4.15
   5   9   7   64.00    5.00
  -5   9  -7   49.14    6.33
   5   9   7   59.46    4.32
  -7  -9  -7   12.57    4.81
   7  -9   7   11.73    2.88
   7  -9   7    4.50    4.54
  -7  -9  -7   11.97    4.18
  -7  -9  -7    9.38    4.70
  -7   9  -7    5.84    3.81
   7   9   7   16.65    2.38
  -7   9  -7   10.58    4.50
   7   9   7   16.35    3.00
  -9  -9  -7   58.37    7.74
   9  -9   7   72.68    6.25
  -9  -9  -7   70.63    8.24
  -9   9  -7   75.14    8.51
   9   9   7   69.86    5.37
  -9   9  -7   66.03    8.12
  10 -10  -7    0.62    5.01
  10 -10  -7   -2.63    4.44
  10 -10  -7    0.33    4.74
 -10  10   7   -2.64    4.53
 -10  10   7   -0.08    4.18
  10  10  -7    4.60    3.52
 -10  10   7    5.04    3.54
   8 -10  -7   -4.66    4.10
   8 -10  -7    3.45    3.91
   8 -10  -7   -3.95    4.18
  -8  10   7   -1.77    2.99
  -8  10   7    1.45    3.92
  -8  10   7    3.15    3.54
   8  10  -7   -0.98    2.84
   6 -10  -7    0.18    3.86
   6 -10  -7    2.25    3.74
   6  10  -7    0.09    2.72
  -6  10   7    0.99    2.63
  -6  10   7   -2.76    2.66
  -6  10   7   -1.98    3.54
  -4 -10   7   -0.06    2.44
   4 -10  -7    1.56    3.63
   4 -10  -7    0.60    3.74
  -4  10   7   -1.03    3.59
   4  10  -7    1.03    2.19
  -4  10   7   -1.34    2.67
  -4  10   7   -0.69    2.41
  -2 -10   7   25.45    4.27
  -2 -10   7   18.77    3.20
   2 -10  -7   22.24    5.16
   2 -10  -7   14.82    4.54
   2  10  -7   26.56    4.59
  -2  10   7   22.69    2.90
  -2  10   7   17.13    4.95
  -2  10   7   21.39    3.45
   0 -10   7    1.93    3.00
   0 -10  -7   -0.87    2.23
   0 -10  -7    1.12    3.45
   0 -10  -7   -4.44    3.13
   0 -10   7   -0.47    2.68
   0  10   7   -1.59    2.17
   0  10  -7   -2.41    2.98
   0  10   7    1.45    1.83
   0  10   7   -2.25    2.29
   2 -10   7    3.81    3.50
   2 -10   7    8.98    3.34
  -2 -10  -7    8.73    4.18
  -2 -10  -7    9.28    4.09
  -2 -10  -7    8.47    2.80
  -2  10  -7    4.24    3.11
   2  10   7    8.36    1.98
   2  10   7   10.27    2.46
   2  10   7    6.47    2.81
  -4 -10  -7    2.32    3.62
  -4 -10  -7    2.90    2.60
   4 -10   7   -7.43    3.63
  -4 -10  -7    5.35    3.80
   4  10   7    3.60    2.78
  -4  10  -7    3.20    3.20
   4  10   7    7.37    2.23
   4  10   7    7.98    1.93
  -4  10  -7    1.23    3.56
   6 -10   7   -4.78    3.61
  -6 -10  -7    1.97    4.55
  -6 -10  -7   -4.25    3.72
   6 -10   7    5.14    3.91
  -6 -10  -7    1.36    4.09
  -6  10  -7    0.52    3.73
   6  10   7    2.51    1.83
  -6  10  -7    4.22    4.18
   6  10   7   -0.19    2.64
  -8 -10  -7   -4.76    4.12
  -8 -10  -7   -6.44    4.38
  -8 -10  -7    8.64    4.85
   8 -10   7    7.03    4.40
  -8  10  -7   -3.94    4.44
  -8  10  -7   -1.03    4.24
   8  10   7   -2.66    2.58
   8  10   7    1.80    1.95
   9 -11  -7   13.59    5.68
   9 -11  -7   13.46    5.86
  -9  11   7   12.16    4.47
  -9  11   7   13.28    4.96
  -9  11   7   14.40    4.85
   9  11  -7   18.70    4.04
   7 -11  -7    0.64    4.60
   7 -11  -7   -0.55    4.40
  -7  11   7   -5.78    3.62
   7  11  -7    3.75    3.31
  -7  11   7    0.68    3.82
  -7  11   7   -1.91    3.16
  -5 -11   7    3.99    2.99
   5 -11  -7   -1.01    3.93
   5 -11  -7    3.06    4.67
  -5  11   7    4.24    3.14
  -5  11   7    3.34    3.89
   5  11  -7    0.58    2.61
  -3 -11   7   -6.36    2.92
   3 -11  -7   -5.93    3.91
   3 -11  -7   -0.53    3.70
  -3  11   7   -1.01    3.72
   3  11  -7    0.93    3.04
  -3  11   7    1.71    2.67
  -3  11   7    0.24    2.69
   1 -11  -7   13.31    4.59
  -1 -11   7    7.70    3.28
   1 -11  -7   10.65    4.71
   1 -11  -7    6.88    2.83
  -1  11   7    8.09    2.93
  -1  11   7   11.61    2.94
   1  11  -7    9.97    3.79
  -1  11   7    6.06    4.32
   1 -11   7    9.07    3.16
   1 -11   7    8.09    4.26
  -1 -11  -7    8.75    4.48
  -1 -11  -7    7.11    3.15
  -1 -11  -7    5.20    4.66
   1  11   7   10.20    2.33
   1  11   7    7.47    2.91
  -1  11  -7    4.71    3.76
  -3 -11  -7   11.75    3.37
   3 -11   7   10.05    4.13
  -3 -11  -7   12.20    5.05
   3 -11   7   11.35    4.19
  -3 -11  -7    6.88    4.71
   3  11   7   11.46    3.27
   3  11   7    5.81    1.82
  -3  11  -7   10.53    3.97
   3  11   7   14.55    2.91
   5 -11   7   12.78    4.46
   5 -11   7    4.47    4.58
  -5 -11  -7   10.72    4.86
  -5 -11  -7    8.72    4.48
   5  11   7   13.07    3.51
  -5  11  -7    5.73    3.75
  -5  11  -7    9.70    4.53
   5  11   7   13.72    2.44
   5  11   7   10.90    2.09
  -7 -11  -7    4.76    4.89
  -7 -11  -7    6.96    5.10
   7 -11   7   -0.11    4.43
  -7 -11  -7   -4.09    4.30
  -7  11  -7    8.98    5.29
   7  11   7    6.67    3.47
   7  11   7    2.06    2.04
  -7  11  -7   -1.60    3.80
   6 -12  -7    7.04    4.77
   6 -12  -7    0.36    4.74
  -6  12   7   -1.39    3.25
  -6  12   7    2.22    4.67
  -6  12   7    3.91    4.35
   4 -12  -7    8.80    4.85
  -4 -12   7    3.12    3.57
   4 -12  -7    7.75    5.06
  -4  12   7    6.60    4.41
  -4  12   7    3.70    3.31
  -4  12   7    1.78    3.96
   4  12  -7    5.23    3.83
   2 -12  -7   22.36    5.71
  -2 -12   7   31.11    4.84
   2 -12  -7   26.41    6.24
   2  12  -7   24.56    4.92
  -2  12   7   32.15    4.46
  -2  12   7   25.04    5.34
  -2  12   7   24.59    3.94
   0 -12  -7    1.33    4.35
   0 -12  -7   -0.47    4.09
   0 -12   7    5.00    3.33
   0 -12  -7    0.90    3.08
   0  12   7    2.72    3.10
   0  12   7    5.07    4.11
   0  12  -7    2.24    3.70
   0  12   7    0.47    2.95
   2 -12   7   11.53    4.99
  -2 -12  -7    1.83    4.62
  -2 -12  -7    4.89    4.45
  -2 -12  -7    2.32    3.53
   2  12   7    7.97    3.28
   2  12   7    2.71    2.07
  -2  12  -7    2.62    4.03
   2  12   7    7.41    4.46
  -4 -12  -7   -0.21    4.74
  -4 -12  -7   -7.16    3.78
   4 -12   7    4.63    4.90
   4 -12   7   -0.26    4.58
   4  12   7    0.05    2.85
   4  12   7    0.86    4.14
  -4  12  -7    4.06    4.27
  -4  12  -7   10.25    4.92
   4  12   7    2.49    1.93
  -1 -13   7   15.67    5.05
   1 -13  -7   29.81    6.44
   1 -13  -7   24.35    6.13
  -1  13   7   29.20    5.03
  -1  13   7   23.02    4.01
   1  13  -7   26.07    5.23
  -1  13   7   17.18    5.65
  -1 -13  -7  108.28   10.41
  -1 -13  -7   94.81    7.90
   1 -13   7   96.68    9.59
  -1 -13  -7   93.37   10.07
  -1  13  -7  110.34    9.42
   1  13   7  113.00    7.41
   1  13   7  107.39    9.60
   1  13   7  102.22    7.74
 -14   0   8   42.76    6.36
  14   0  -8   29.61    5.92
 -14   0   8   34.05    5.60
 -14   0   8   38.17    7.01
 -12   0   8  101.78    8.14
  12   0  -8   99.45    8.89
  12   0  -8  115.79    5.48
 -12   0   8  109.55   10.89
 -12   0   8  110.94    8.50
 -10   0   8  180.69   10.09
 -10   0   8  183.18   10.00
  10   0  -8  179.15   10.75
 -10   0   8  178.78   10.40
  10   0  -8  180.73    8.10
   8   0  -8    0.87    2.38
  -8   0   8    0.49    1.87
   8   0  -8    1.53    1.36
  -8   0   8   -1.68    1.60
  -8   0   8    2.30    2.32
  -6   0   8  210.45   10.63
   6   0  -8  224.03   11.41
   6   0  -8  234.38   11.01
   6   0  -8  216.37    9.77
  -6   0   8  228.43   11.29
  -6   0   8  214.76   11.12
   4   0  -8   55.52    3.84
  -4   0   8   59.22    4.61
  -4   0   8   63.92    4.76
   4   0  -8   60.90    4.42
   4   0  -8   54.24    4.77
  -2   0   8   92.01    5.90
   2   0  -8   99.13    6.13
   2   0  -8   95.90    5.55
  -2   0   8   92.58    5.82
   0   0   8   19.16    2.77
   0   0   8   16.99    2.68
   0   0  -8   22.09    2.65
   2   0   8   27.90    3.45
  -2   0  -8   30.69    3.84
   2   0   8   25.10    2.91
  -2   0  -8   29.20    3.04
   4   0   8  187.22    8.75
   4   0   8  178.92    9.43
  -4   0  -8  175.89    9.06
  -4   0  -8  172.27    8.05
  -4   0  -8  191.01    9.53
  -6   0  -8   70.64    3.73
  -6   0  -8   55.64    4.92
  -6   0  -8   63.78    5.39
   6   0   8   63.77    4.22
  -6   0  -8   62.27    5.39
   6   0   8   60.64    5.10
  -8   0  -8   97.23    6.47
  -8   0  -8  102.44    9.24
   8   0   8   88.23    6.57
  -8   0  -8   95.00    4.97
  -8   0  -8   86.17    6.73
 -10   0  -8   55.34    6.97
  10   0   8   66.47    6.73
 -10   0  -8   60.34    6.82
 -10   0  -8   64.42    4.32
 -12   0  -8  201.80   12.63
  12   0   8  195.07   12.36
 -12   0  -8  212.45   12.47
 -12   0  -8  209.46    9.99
 -14   0  -8   15.84    5.73
  14   0   8   13.27    4.94
 -14   0  -8    5.78    4.85
 -15  -1   8   80.73    9.66
  15  -1  -8   86.28    9.54
 -15  -1   8   82.01    8.73
 -15  -1   8   74.41    8.54
  15   1  -8   76.89    9.04
 -15   1   8   91.97    9.50
 -15   1   8   67.37    8.35
 -15   1   8   82.92    8.82
  13  -1  -8    2.23    2.38
 -13  -1   8    1.17    4.07
  13  -1  -8    2.21    4.18
 -13  -1   8   -7.26    3.50
 -13  -1   8    3.98    3.84
 -13   1   8    2.07    3.96
 -13   1   8    3.58    4.44
 -13   1   8    0.26    4.50
  13   1  -8    5.51    4.66
 -11  -1   8    7.28    3.43
 -11  -1   8    9.10    3.75
  11  -1  -8   11.05    4.01
  11  -1  -8   11.00    2.30
 -11  -1   8   14.32    3.21
 -11   1   8   10.50    3.45
 -11   1   8    7.18    3.55
  11   1  -8   14.41    4.38
 -11   1   8   16.69    3.49
   9  -1  -8   83.37    4.93
  -9  -1   8   89.13    6.06
  -9  -1   8   82.02    6.53
   9  -1  -8   76.83    6.56
  -9  -1   8   83.78    6.32
   9   1  -8   81.41    6.45
  -9   1   8   86.47    6.64
  -9   1   8   84.28    6.33
  -9   1   8   86.28    6.15
  -7  -1   8  205.92   10.85
   7  -1  -8  213.41   10.77
  -7  -1   8  215.54   10.73
  -7  -1   8  199.93   10.82
   7  -1  -8  212.29    9.67
   7  -1  -8  209.91   11.21
  -7   1   8  211.63   10.54
  -7   1   8  207.29   10.94
   7   1  -8  203.29   10.98
  -7   1   8  220.14   11.02
   5  -1  -8   36.94    3.85
   5  -1  -8   43.08    4.48
  -5  -1   8   40.64    4.15
   5  -1  -8   40.16    3.35
  -5  -1   8   34.65    3.99
  -5   1   8   41.14    3.62
  -5   1   8   43.59    3.97
  -5   1   8   39.71    3.71
   5   1  -8   37.56    4.10
   5   1  -8   45.25    3.83
   3  -1  -8   13.42    2.23
   3  -1  -8   10.28    2.23
   3  -1  -8   14.98    2.60
  -3  -1   8   11.04    2.47
  -3  -1   8   13.21    2.45
  -3   1   8    9.86    2.31
  -3   1   8   10.83    2.29
   3   1  -8   13.58    2.35
  -3   1   8   15.15    2.24
   3   1  -8   11.34    2.48
   1  -1  -8  473.68   19.34
  -1  -1   8  426.27   19.46
  -1  -1   8  464.04   19.54
   1  -1  -8  432.44   19.27
   1  -1  -8  432.19   19.61
  -1   1   8  434.81   19.43
  -1   1   8  468.41   19.47
   1   1  -8  456.29   19.55
   1   1  -8  451.52   18.89
   1  -1   8  185.29    9.58
  -1  -1  -8  194.66    9.52
  -1  -1  -8  189.72    9.21
   1  -1   8  179.64    9.14
   1   1   8  188.91    9.39
  -1   1  -8  194.25    8.92
   1   1   8  184.58    9.07
  -1   1  -8  184.49    9.62
   3  -1   8    3.60    1.63
  -3  -1  -8    3.50    0.89
  -3  -1  -8    3.68    1.80
   3  -1   8    3.98    1.98
  -3  -1  -8    4.07    2.15
  -3  -1  -8    1.85    1.11
   3   1   8    3.17    1.62
   3   1   8    0.48    1.55
  -3   1  -8    4.17    1.94
  -3   1  -8    2.74    1.66
   5  -1   8   11.48    2.60
   5  -1   8    9.13    1.97
  -5  -1  -8   12.97    2.75
  -5  -1  -8   10.97    2.67
  -5  -1  -8   16.84    2.77
  -5   1  -8   15.68    2.60
   5   1   8   15.64    2.19
  -5   1  -8   13.76    2.75
   5   1   8   15.49    2.82
  -7  -1  -8   58.00    5.20
  -7  -1  -8   53.68    4.99
  -7  -1  -8   44.39    4.99
   7  -1   8   51.18    5.14
  -7   1  -8   51.08    4.96
  -7   1  -8   59.42    3.89
   7   1   8   55.33    3.73
   7   1   8   49.08    4.73
  -7   1  -8   57.78    5.37
  -7   1  -8   59.38    4.90
  -9  -1  -8  143.84   10.89
  -9  -1  -8  182.94    7.33
  -9  -1  -8  179.07   10.05
  -9  -1  -8  183.08   10.18
  -9   1  -8  173.48   10.28
  -9   1  -8  178.37    8.43
   9   1   8  160.71   11.67
 -11  -1  -8   54.70    3.99
  11  -1   8   53.64    6.47
 -11  -1  -8   42.16    5.56
 -11  -1  -8   44.72    6.04
 -11   1  -8   56.13    6.90
  11   1   8   57.68    6.17
 -11   1  -8   51.92    4.85
 -11   1  -8   62.15    6.99
  13  -1   8   29.99    5.34
 -13  -1  -8   17.91    5.21
 -13  -1  -8   33.41    5.67
 -13   1  -8   27.41    5.60
  13   1   8   27.50    5.11
 -13   1  -8   29.74    5.99
 -13   1  -8   30.75    3.96
 -14  -2   8   27.20    5.23
 -14  -2   8   29.74    5.84
 -14  -2   8   27.53    5.90
  14  -2  -8   38.02    4.23
  14  -2  -8   30.62    5.92
 -14   2   8   30.69    5.69
 -14   2   8   33.83    6.04
  14   2  -8   22.62    6.09
 -14   2   8   33.04    5.89
 -12  -2   8  145.86   10.35
  12  -2  -8  170.58    8.50
  12  -2  -8  167.68   11.13
 -12  -2   8  161.86   10.13
  12   2  -8  150.12   10.85
 -12   2   8  169.87   10.59
 -12   2   8  142.26   10.89
 -12   2   8  158.47   10.71
 -10  -2   8   33.28    4.20
 -10  -2   8   43.23    4.54
 -10  -2   8   44.92    5.37
  10  -2  -8   43.39    3.98
  10   2  -8   47.03    5.08
 -10   2   8   32.30    4.52
 -10   2   8   39.62    5.07
 -10   2   8   40.42    4.53
   8  -2  -8   28.07    3.81
  -8  -2   8   21.28    3.40
  -8  -2   8   24.41    3.56
   8  -2  -8   23.66    2.93
   8  -2  -8   27.61    4.22
  -8   2   8   29.10    3.75
   8   2  -8   17.42    3.32
  -8   2   8   24.65    3.73
  -8   2   8   29.70    4.14
   6  -2  -8   17.28    2.98
   6  -2  -8   17.63    3.03
   6  -2  -8   23.45    2.88
  -6  -2   8   14.81    1.94
  -6  -2   8   12.47    2.79
  -6  -2   8   15.37    2.74
  -6   2   8   17.77    3.18
  -6   2   8   15.36    2.79
   6   2  -8   11.63    2.70
  -6   2   8   15.34    2.90
   6   2  -8   17.86    2.67
  -4  -2   8  117.04    6.78
   4  -2  -8  116.38    7.11
   4  -2  -8  104.12    6.58
   4  -2  -8  110.08    6.21
  -4  -2   8  109.84    6.75
  -4   2   8  102.51    6.39
  -4   2   8  105.84    6.64
  -4   2   8  115.79    6.12
   4   2  -8  113.66    6.76
   4   2  -8  104.97    5.93
   2  -2  -8   98.47    5.98
  -2  -2   8   89.68    5.81
   2  -2  -8   88.42    5.55
  -2  -2   8   88.42    5.82
   2  -2  -8   98.15    6.13
   2   2  -8   97.23    5.10
  -2   2   8   90.85    5.74
  -2   2   8  101.21    5.03
  -2   2   8   84.09    5.70
   2   2  -8   89.67    5.80
   0  -2   8   31.53    3.34
   0  -2   8   27.32    3.50
   0  -2  -8   26.95    3.39
   0  -2  -8   33.68    3.38
   0   2   8   32.91    3.41
   0   2  -8   35.15    2.73
   0   2   8   23.34    2.86
  -2  -2  -8   65.00    4.83
  -2  -2  -8   68.46    5.20
   2  -2   8   63.80    4.56
  -2  -2  -8   74.54    4.83
   2  -2   8   72.24    5.05
   2   2   8   67.13    4.77
  -2   2  -8   65.82    5.26
   2   2   8   71.67    4.47
  -2   2  -8   64.16    4.16
  -4  -2  -8  287.98   13.83
   4  -2   8  288.75   14.06
  -4  -2  -8  300.02   13.93
   4  -2   8  308.36   13.40
  -4  -2  -8  294.64   13.64
   4   2   8  280.68   13.59
  -4   2  -8  291.80   14.07
  -4   2  -8  299.40   13.17
   4   2   8  292.30   12.92
  -6  -2  -8   93.54    6.61
  -6  -2  -8   94.19    6.62
  -6  -2  -8  103.51    6.67
   6  -2   8   97.07    6.77
  -6   2  -8   97.48    6.91
   6   2   8  104.21    5.42
  -6   2  -8  103.09    6.24
   6   2   8  103.50    6.47
  -6   2  -8  103.95    5.69
  -8  -2  -8   12.10    3.12
  -8  -2  -8    7.69    3.14
   8  -2   8    6.59    2.71
  -8  -2  -8    7.54    2.57
  -8   2  -8    6.21    2.76
  -8   2  -8    7.91    2.98
   8   2   8    6.59    2.29
  -8   2  -8    8.64    2.32
 -10  -2  -8   82.44    7.35
  10  -2   8   75.76    7.32
 -10  -2  -8   62.73    7.21
 -10  -2  -8   71.46    8.39
 -10   2  -8   80.33    5.56
 -10   2  -8   88.34    7.26
  10   2   8   70.72    7.21
 -10   2  -8   69.66    7.29
  12  -2   8    8.77    4.42
 -12  -2  -8   21.22    5.14
 -12   2  -8   22.30    5.43
 -12   2  -8   23.09    3.69
  12   2   8   19.44    4.75
 -12   2  -8   22.53    5.00
 -14  -2  -8   32.61    6.47
 -14   2  -8   32.20    4.66
 -14   2  -8   41.31    6.83
 -14   2  -8   28.96    6.02
 -15  -3   8   59.91    7.29
  15  -3  -8   53.27    7.89
 -15  -3   8   61.52    7.75
  15  -3  -8   55.53    6.12
 -15   3   8   64.57    7.92
 -15   3   8   43.36    7.09
 -15   3   8   53.76    7.50
  15   3  -8   63.95    8.28
  13  -3  -8    0.25    4.66
 -13  -3   8    7.81    4.30
  13  -3  -8    1.35    2.66
 -13  -3   8   -1.63    3.88
 -13   3   8    6.16    4.29
 -13   3   8    0.55    4.02
  13   3  -8   11.53    5.01
 -13   3   8    2.83    4.03
  11  -3  -8   14.61    4.96
 -11  -3   8   28.03    6.89
  11  -3  -8   21.55    3.28
 -11  -3   8   16.68    3.83
 -11   3   8   13.86    4.11
  11   3  -8   21.12    4.88
 -11   3   8   11.71    4.14
 -11   3   8   17.92    4.47
  -9  -3   8    5.95    2.77
   9  -3  -8   10.52    2.43
   9  -3  -8    5.04    2.16
   9  -3  -8    6.28    3.02
  -9  -3   8    6.31    2.80
  -9   3   8    1.93    2.39
  -9   3   8    8.50    2.67
   9   3  -8    7.82    2.48
  -9   3   8    5.85    2.67
  -7  -3   8   73.08    5.74
  -7  -3   8   80.00    5.95
   7  -3  -8   77.49    5.24
   7  -3  -8   74.75    5.81
   7  -3  -8   73.72    6.06
   7  -3  -8   76.31    4.00
  -7   3   8   81.56    5.92
  -7   3   8   68.05    5.72
   7   3  -8   81.99    5.88
  -7   3   8   80.51    5.56
  -5  -3   8  144.10    8.43
   5  -3  -8  141.35    7.95
   5  -3  -8  149.67    8.57
  -5  -3   8  153.17    8.52
   5  -3  -8  151.68    8.80
  -5  -3   8  159.33    8.19
  -5   3   8  160.80    7.98
   5   3  -8  152.16    8.47
   5   3  -8  151.55    7.59
  -5   3   8  151.14    8.44
  -5   3   8  154.13    8.49
   3  -3  -8   18.49    2.94
   3  -3  -8   23.26    3.39
  -3  -3   8   27.57    3.64
   3  -3  -8   21.16    3.00
  -3  -3   8   24.29    3.27
  -3   3   8   15.41    2.93
   3   3  -8   16.74    2.69
  -3   3   8   18.98    2.74
   3   3  -8   21.95    2.47
  -3   3   8   23.39    2.57
  -1  -3   8  172.21    8.96
   1  -3  -8  173.02    8.19
  -1  -3   8  154.91    8.82
   1  -3  -8  167.31    8.99
   1  -3  -8  170.54    8.99
   1   3  -8  172.32    7.70
  -1   3   8  170.44    8.67
   1   3  -8  171.80    8.67
  -1   3   8  178.38    8.85
  -1   3   8  169.88    7.63
   1  -3   8  133.70    7.32
  -1  -3  -8  131.35    7.11
  -1  -3  -8  130.07    7.44
  -1  -3  -8  127.66    7.59
   1  -3   8  117.16    7.35
  -1  -3  -8  130.01    5.80
  -1  -3  -8  137.28    7.02
   1   3   8  133.46    7.15
  -1   3  -8  131.29    6.18
   1   3   8  126.23    6.90
  -1   3  -8  121.03    7.56
  -3  -3  -8   14.27    2.69
  -3  -3  -8   19.15    3.00
   3  -3   8   10.59    2.78
   3  -3   8   13.60    2.42
  -3  -3  -8   15.71    2.78
   3   3   8   18.64    2.52
  -3   3  -8   19.87    2.35
   3   3   8   20.23    2.81
  -3   3  -8   16.22    3.21
   5  -3   8   36.73    4.44
  -5  -3  -8   35.41    4.10
  -5  -3  -8   40.90    4.43
  -5  -3  -8   37.60    4.23
  -5   3  -8   45.42    3.76
  -5   3  -8   32.97    4.34
   5   3   8   45.99    3.94
   5   3   8   44.23    3.42
   7  -3   8   83.89    6.26
  -7  -3  -8   74.93    6.17
  -7  -3  -8   74.17    6.01
  -7  -3  -8   90.28    6.30
   7   3   8   94.86    4.74
  -7   3  -8   78.39    6.63
  -7   3  -8   89.64    5.50
   7   3   8   86.39    5.79
  -9  -3  -8    6.68    4.14
  -9  -3  -8   15.46    3.74
  -9  -3  -8    4.32    3.79
  -9   3  -8    4.50    3.68
  -9   3  -8    5.08    3.03
  -9   3  -8    6.17    2.45
 -11  -3  -8   17.11    4.72
  11  -3   8   13.82    4.74
 -11   3  -8   18.06    4.53
 -11   3  -8    9.17    4.83
 -11   3  -8   19.64    3.52
  11   3   8   15.32    3.89
  13  -3   8    1.17    4.29
 -13  -3  -8    1.65    3.93
 -13   3  -8    7.11    4.61
 -13   3  -8   -0.78    3.24
 -13   3  -8   -0.47    5.06
  13   3   8    0.66    3.53
  14  -4  -8    0.29    3.21
  14  -4  -8    6.08    5.21
 -14  -4   8    4.11    4.75
 -14  -4   8   -1.95    4.14
 -14   4   8    2.60    4.22
 -14   4   8   -1.51    4.45
  14   4  -8    0.42    4.72
 -14   4   8    0.31    4.50
 -12  -4   8   60.59    6.60
  12  -4  -8   36.65    6.07
  12  -4  -8   62.80    5.58
 -12  -4   8   51.34    6.54
  12  -4  -8   47.99    7.17
 -12   4   8   52.85    6.43
 -12   4   8   42.66    6.16
 -12   4   8   48.07    6.61
  12   4  -8   44.43    6.25
 -10  -4   8   31.21    4.03
  10  -4  -8   24.46    3.47
  10  -4  -8   17.28    4.38
 -10  -4   8   19.74    4.00
  10  -4  -8   20.97    4.89
 -10   4   8   27.79    4.97
 -10   4   8   20.55    4.16
 -10   4   8   15.20    3.53
  10   4  -8   27.48    4.39
  -8  -4   8   -0.37    2.17
  -8  -4   8    0.88    2.25
   8  -4  -8    0.35    2.08
   8  -4  -8    0.40    2.07
   8  -4  -8   -4.07    2.14
   8   4  -8   -0.41    2.27
  -8   4   8   -1.34    1.98
  -8   4   8   -2.20    2.05
  -8   4   8   -3.41    1.90
  -6  -4   8   13.03    3.11
   6  -4  -8   10.81    2.71
   6  -4  -8   16.40    2.83
   6  -4  -8   16.61    3.32
  -6  -4   8   19.02    3.47
  -6   4   8   17.78    2.98
  -6   4   8   15.86    3.01
   6   4  -8   12.75    2.75
  -6   4   8   14.41    2.55
   6   4  -8   17.69    2.57
  -4  -4   8   54.23    4.83
   4  -4  -8   54.42    4.89
   4  -4  -8   56.16    5.13
   4  -4  -8   53.24    3.26
  -4  -4   8   51.42    4.72
   4  -4  -8   49.98    4.48
  -4   4   8   60.88    4.84
  -4   4   8   54.56    4.09
   4   4  -8   58.69    3.63
   4   4  -8   58.87    4.72
  -4   4   8   52.74    4.50
   2  -4  -8    0.64    1.75
  -2  -4   8    0.00    1.71
  -2  -4   8    0.02    1.84
   2  -4  -8   -0.87    1.95
   2  -4  -8    1.15    1.40
   2  -4  -8    0.88    1.97
   2   4  -8    0.66    0.96
   2   4  -8    0.36    1.64
  -2   4   8    3.07    2.02
  -2   4   8   -0.79    1.22
  -2   4   8    1.01    1.65
   0  -4  -8    0.40    1.88
   0  -4   8    1.20    1.72
   0  -4  -8    1.20    1.91
   0  -4   8    0.75    2.02
   0  -4  -8   -1.15    1.50
   0   4   8    0.65    1.77
   0   4   8    1.58    1.55
   0   4   8   -0.66    0.95
   0   4  -8    0.15    0.99
  -2  -4  -8   19.90    2.89
   2  -4   8   20.33    3.35
  -2  -4  -8   13.95    3.18
  -2  -4  -8   21.69    2.90
  -2  -4  -8   18.14    2.96
   2  -4   8   20.13    2.96
   2   4   8   17.14    2.60
   2   4   8   15.31    2.58
  -2   4  -8   20.98    3.49
  -2   4  -8   20.96    2.00
  -4  -4  -8   65.65    4.99
  -4  -4  -8   61.35    4.96
  -4  -4  -8   65.41    5.27
   4  -4   8   61.73    5.33
   4   4   8   55.74    4.11
   4   4   8   61.34    4.57
  -4   4  -8   59.73    5.29
  -6  -4  -8  117.93    7.09
   6  -4   8   91.68    6.92
  -6  -4  -8  103.04    6.50
  -6  -4  -8   93.07    6.80
  -6   4  -8  106.88    6.37
   6   4   8  102.86    5.54
   6   4   8   98.62    6.24
  -6   4  -8   96.04    7.02
   8  -4   8   26.63    4.13
  -8  -4  -8   20.07    3.73
  -8  -4  -8   15.45    3.48
   8   4   8   18.49    3.12
   8   4   8   24.82    2.35
  -8   4  -8   12.02    3.38
  -8   4  -8   22.11    3.39
  10  -4   8   -4.97    3.47
 -10  -4  -8    3.66    3.85
 -10  -4  -8    3.69    3.63
 -10   4  -8   -0.74    3.04
 -10   4  -8    5.09    2.77
 -10   4  -8    2.77    3.53
  10   4   8    6.99    3.30
  12  -4   8    6.71    4.40
 -12  -4  -8    4.02    4.31
  12   4   8    4.23    3.71
 -12   4  -8    6.19    4.51
 -12   4  -8    7.08    3.31
  13  -5  -8    7.48    5.29
  13  -5  -8   -4.88    3.79
  13  -5  -8    0.48    3.27
 -13  -5   8    3.41    4.03
 -13  -5   8    6.73    4.66
 -13   5   8    3.21    4.15
  13   5  -8   -1.16    4.15
 -13   5   8   -1.37    4.27
 -13   5   8    1.50    4.29
 -11  -5   8    6.20    3.59
  11  -5  -8   13.47    3.48
 -11  -5   8   17.24    4.26
  11  -5  -8   18.69    5.12
  11  -5  -8   10.91    4.73
  11   5  -8   15.75    5.10
 -11   5   8   13.02    4.17
 -11   5   8   11.81    4.56
 -11   5   8   14.89    4.62
  -9  -5   8   -0.05    2.90
   9  -5  -8   10.99    4.01
   9  -5  -8    1.68    3.19
  -9  -5   8    3.83    2.42
   9  -5  -8   11.78    2.79
  -9   5   8    7.84    3.47
   9   5  -8    1.81    2.60
  -9   5   8    7.81    3.44
  -9   5   8    6.90    2.85
   7  -5  -8   13.46    2.90
   7  -5  -8   16.30    3.34
  -7  -5   8   14.37    3.15
  -7  -5   8   21.50    3.63
   7  -5  -8   18.68    3.60
  -7   5   8   19.11    3.74
   7   5  -8   18.17    3.46
  -7   5   8   12.30    2.65
  -7   5   8   15.88    3.07
  -5  -5   8    2.18    1.28
   5  -5  -8   -2.42    2.01
  -5  -5   8    1.44    2.39
   5  -5  -8   -0.40    2.07
   5  -5  -8   -0.41    1.91
  -5  -5   8    0.48    1.97
  -5   5   8    1.89    1.86
   5   5  -8   -0.60    1.94
  -5   5   8   -1.29    2.01
  -5   5   8    2.08    1.80
   5   5  -8    1.20    1.46
   3  -5  -8   52.01    4.75
   3  -5  -8   41.43    4.37
  -3  -5   8   49.93    4.81
  -3  -5   8   57.74    4.81
   3  -5  -8   47.85    4.49
  -3   5   8   46.63    4.35
  -3   5   8   46.59    4.31
   3   5  -8   46.14    2.72
  -3   5   8   44.96    3.76
   3   5  -8   47.47    4.28
   1  -5  -8    6.46    2.37
  -1  -5   8    8.51    2.66
   1  -5  -8    9.70    1.83
  -1  -5   8    5.44    2.05
   1  -5  -8   13.08    2.90
  -1   5   8    7.46    1.96
  -1   5   8   10.57    1.64
  -1   5   8   10.65    2.55
  -1  -5  -8    2.41    2.22
   1  -5   8    2.62    1.83
  -1  -5  -8    3.04    2.44
   1  -5   8    3.10    2.41
  -1  -5  -8    3.47    2.07
  -1  -5  -8    4.75    2.00
   1   5   8    3.79    1.95
   1   5   8   -0.41    1.72
   1   5   8    5.39    0.96
  -1   5  -8    6.43    2.37
  -3  -5  -8   23.27    3.77
  -3  -5  -8   24.61    3.51
   3  -5   8   18.68    3.26
  -3  -5  -8   16.73    3.11
   3   5   8   26.43    3.01
  -3   5  -8   27.03    3.87
   3   5   8   20.81    2.75
  -5  -5  -8   -1.35    2.17
  -5  -5  -8    7.33    2.57
   5  -5   8    0.61    2.40
  -5  -5  -8    4.41    2.55
  -5   5  -8    0.38    2.68
   5   5   8    0.80    1.69
  -5   5  -8    4.19    2.19
   5   5   8    5.79    1.78
   7  -5   8    6.64    2.94
  -7  -5  -8    1.47    2.38
  -7  -5  -8    4.96    2.96
  -7   5  -8   -1.49    2.27
   7   5   8   -0.16    1.82
  -7   5  -8   -1.77    2.52
  -9  -5  -8   14.06    4.39
   9  -5   8   15.28    4.60
  -9  -5  -8   10.54    4.14
  -9   5  -8   14.88    3.83
  -9   5  -8    6.53    2.84
   9   5   8    5.88    3.54
 -11  -5  -8    1.72    4.33
  11  -5   8    2.20    4.16
 -11  -5  -8    1.63    4.53
 -11   5  -8    5.07    3.40
 -11   5  -8    4.00    4.12
  11   5   8    5.15    3.51
 -11   5  -8    4.09    4.85
  12  -6  -8    6.86    5.04
 -12  -6   8    8.25    5.05
 -12  -6   8    9.43    4.21
  12  -6  -8    9.15    4.74
  12  -6  -8    5.30    4.16
 -12   6   8    8.16    4.08
  12   6  -8    8.93    4.69
 -12   6   8    4.78    4.26
 -12   6   8   10.33    4.71
  10  -6  -8   -3.27    3.89
  10  -6  -8   -0.17    3.68
  10  -6  -8    2.08    2.70
 -10  -6   8    6.35    3.86
 -10  -6   8    1.16    3.69
 -10   6   8   -2.48    2.84
 -10   6   8   -0.86    3.51
 -10   6   8    2.44    3.84
  10   6  -8   -0.53    3.23
  -8  -6   8   13.08    3.23
   8  -6  -8   11.12    2.68
   8  -6  -8    0.48    3.71
   8  -6  -8    9.37    3.08
  -8  -6   8   14.21    3.61
  -8   6   8    3.29    3.37
   8   6  -8   12.84    3.17
  -8   6   8    6.04    3.39
  -8   6   8    6.22    2.73
   6  -6  -8    7.78    2.88
  -6  -6   8    6.01    2.89
  -6  -6   8    7.71    2.84
   6  -6  -8   10.05    3.06
   6  -6  -8    9.76    2.86
   6   6  -8    8.69    2.68
   6   6  -8   12.30    2.00
  -6   6   8    4.22    2.40
  -6   6   8    9.26    2.63
  -6   6   8    6.60    2.47
   4  -6  -8  106.18    7.21
  -4  -6   8  105.02    6.99
   4  -6  -8  102.10    6.91
   4  -6  -8  112.29    7.19
  -4  -6   8  109.89    6.91
  -4  -6   8  114.77    5.44
  -4   6   8  103.25    6.58
   4   6  -8  101.35    5.35
   4   6  -8  100.64    4.74
  -4   6   8  103.46    6.88
  -4   6   8  100.78    6.17
   4   6  -8   98.00    6.40
   2  -6  -8   47.27    3.27
  -2  -6   8   44.17    4.87
   2  -6  -8   41.59    4.59
  -2  -6   8   49.56    4.58
   2  -6  -8   53.79    4.84
  -2   6   8   44.75    4.07
   2   6  -8   39.48    3.99
  -2   6   8   52.63    3.69
  -2   6   8   43.58    4.45
   0  -6  -8   33.61    3.30
   0  -6   8   35.48    4.30
   0  -6  -8   35.28    4.38
   0  -6  -8   31.70    4.23
   0  -6   8   34.36    4.18
   0   6   8   40.01    3.68
   0   6   8   37.88    3.98
   0   6   8   37.14    2.79
   0   6  -8   37.39    4.39
  -2  -6  -8   11.56    2.58
  -2  -6  -8    9.27    2.37
  -2  -6  -8    9.33    2.76
  -2  -6  -8   10.12    2.80
   2  -6   8   10.88    2.83
  -2   6  -8    4.69    2.55
   2   6   8    9.56    2.18
   2   6   8   15.68    2.68
   4  -6   8   28.04    3.98
  -4  -6  -8   20.31    3.31
  -4  -6  -8   27.70    3.88
  -4  -6  -8   25.69    4.09
   4   6   8   24.37    3.13
   4   6   8   25.56    3.06
  -4   6  -8   20.45    3.76
  -6  -6  -8   -1.36    2.24
   6  -6   8   -0.15    2.63
   6   6   8   -1.40    1.75
  -6   6  -8   -1.30    2.23
   6   6   8   -2.25    1.77
  -6   6  -8   -1.31    2.27
   8  -6   8    5.67    3.24
  -8  -6  -8    5.36    3.78
  -8  -6  -8   -1.03    3.91
   8   6   8    1.31    1.75
   8   6   8    0.91    1.86
  -8   6  -8   -0.70    2.46
 -10  -6  -8    6.87    4.80
  10  -6   8    5.02    4.35
 -10  -6  -8   -3.24    4.26
 -10   6  -8    2.34    4.34
 -10   6  -8   -3.36    2.94
  10   6   8   -0.84    2.97
  12  -6   8   11.45    5.37
 -12  -6  -8   11.81    5.38
 -12  -6  -8   18.09    5.65
  12  -6   8   12.50    5.65
 -12   6  -8   16.02    5.29
  12   6   8   16.86    4.10
 -12   6  -8   16.88    5.54
 -12   6  -8    6.73    5.57
  11  -7  -8    7.49    4.58
 -11  -7   8    1.93    3.77
  11  -7  -8    4.29    4.57
  11  -7  -8    0.14    4.62
 -11  -7   8   11.49    5.14
 -11   7   8    9.61    4.71
 -11   7   8   -1.05    4.11
 -11   7   8    3.19    3.95
  11   7  -8   13.89    4.78
   9  -7  -8   45.05    6.47
   9  -7  -8   46.05    5.70
  -9  -7   8   57.92    6.08
  -9  -7   8   41.64    5.67
   9  -7  -8   44.89    6.48
  -9   7   8   52.08    6.18
   9   7  -8   58.31    5.79
  -9   7   8   48.54    6.04
  -9   7   8   54.86    6.76
   7  -7  -8   51.02    5.70
   7  -7  -8   57.16    6.96
   7  -7  -8   62.52    5.79
  -7  -7   8   67.63    6.52
   7   7  -8   53.37    5.33
  -7   7   8   61.02    7.02
  -7   7   8   57.87    6.26
  -7   7   8   69.02    5.65
   5  -7  -8    4.64    2.71
   5  -7  -8    9.50    3.15
   5  -7  -8    5.82    2.57
  -5  -7   8    6.27    1.54
  -5  -7   8   -0.05    2.40
  -5  -7   8    1.46    2.93
  -5   7   8    3.64    2.41
   5   7  -8    4.46    1.28
   5   7  -8    7.00    2.52
  -5   7   8    5.26    2.54
  -5   7   8   -0.09    2.01
   3  -7  -8   24.05    4.07
   3  -7  -8   22.52    2.14
   3  -7  -8   30.70    4.55
  -3  -7   8   28.63    3.20
  -3  -7   8   27.77    4.75
  -3  -7   8   27.08    3.75
  -3   7   8   27.03    3.33
  -3   7   8   24.98    3.19
  -3   7   8   26.41    3.66
   3   7  -8   26.45    3.25
   1  -7  -8   35.00    4.69
  -1  -7   8   35.03    4.22
   1  -7  -8   31.49    4.56
   1  -7  -8   36.78    3.24
  -1   7   8   36.18    4.17
   1   7  -8   31.54    4.17
  -1   7   8   40.60    3.45
  -1   7   8   33.68    3.82
  -1  -7  -8   13.40    3.39
   1  -7   8   16.65    3.30
  -1  -7  -8   18.83    2.76
  -1  -7  -8   16.53    3.58
  -1   7  -8   22.77    3.93
   1   7   8   13.37    2.72
   1   7   8   19.34    1.90
   1   7   8   15.07    2.50
  -3  -7  -8   12.75    3.20
  -3  -7  -8    9.05    2.88
  -3  -7  -8   12.56    2.82
   3  -7   8   15.76    3.61
  -3   7  -8   10.72    2.95
   3   7   8   12.87    2.74
   3   7   8   14.06    2.20
   5  -7   8    5.09    2.87
  -5  -7  -8    4.28    3.05
  -5  -7  -8    0.94    2.40
  -5  -7  -8    7.13    3.66
   5   7   8   -1.37    1.89
   5   7   8    0.27    1.71
  -5   7  -8    3.36    2.47
  -5   7  -8   -6.43    2.60
  -7  -7  -8   63.50    6.47
   7  -7   8   71.32    6.65
  -7  -7  -8   66.19    7.54
  -7   7  -8   66.11    7.47
   7   7   8   73.60    5.13
  -7   7  -8   79.93    6.41
   7   7   8   71.69    4.70
  -9  -7  -8   30.04    5.45
  -9  -7  -8   29.43    5.71
   9  -7   8   35.85    6.40
  -9   7  -8   25.07    5.47
   9   7   8   22.93    4.25
 -11  -7  -8    2.15    4.77
 -11  -7  -8    7.22    4.96
  11  -7   8    7.67    3.98
  11  -7   8    3.97    5.13
  11   7   8    7.94    3.68
 -11   7  -8   19.84    5.87
 -11   7  -8    2.96    4.77
  12  -8  -8   38.58    6.49
 -12  -8   8   41.40    6.49
  12  -8  -8   48.77    7.49
 -12   8   8   34.87    6.38
 -12   8   8   29.47    6.40
  12   8  -8   32.57    6.48
 -12   8   8   32.82    6.55
 -10  -8   8   47.69    6.38
  10  -8  -8   46.19    6.94
  10  -8  -8   44.32    6.37
  10  -8  -8   53.23    7.08
 -10   8   8   45.41    6.76
 -10   8   8   51.43    6.86
 -10   8   8   49.16    6.42
   8  -8  -8   10.56    4.11
  -8  -8   8    3.56    3.55
  -8  -8   8    4.80    4.19
   8  -8  -8    3.67    4.80
   8  -8  -8    6.62    4.19
  -8   8   8    4.19    3.33
   8   8  -8    3.20    3.07
  -8   8   8    4.37    3.78
   6  -8  -8   11.35    4.26
   6  -8  -8   14.91    3.46
  -6  -8   8   11.69    3.63
  -6  -8   8   12.89    3.89
   6   8  -8   14.05    3.12
  -6   8   8   10.52    3.62
  -6   8   8   12.23    4.13
  -6   8   8   13.07    2.98
   6   8  -8   16.18    2.27
   4  -8  -8  221.63   12.98
  -4  -8   8  240.70   10.64
  -4  -8   8  250.60   12.13
   4  -8  -8  238.19   12.63
   4   8  -8  249.46   11.37
  -4   8   8  190.66   13.68
  -4   8   8  243.34   11.64
  -4   8   8  222.29   11.88
  -2  -8   8   27.37    3.95
   2  -8  -8   21.36    4.52
  -2  -8   8   29.02    3.43
   2  -8  -8   31.11    3.04
   2  -8  -8   19.36    3.81
  -2   8   8   29.69    3.52
  -2   8   8   29.28    3.36
  -2   8   8   27.05    4.03
   0  -8  -8    5.47    2.88
   0  -8  -8    9.34    2.93
   0  -8  -8    5.16    2.27
   0  -8   8   10.32    3.17
   0   8   8    4.07    1.85
   0   8  -8   10.91    3.28
   0   8   8    5.96    2.40
   0   8   8    6.92    2.06
   2  -8   8   39.04    4.66
  -2  -8  -8   33.19    4.01
  -2  -8  -8   34.51    7.90
   2   8   8   31.54    2.71
   2   8   8   41.57    4.53
   2   8   8   35.17    3.65
   4  -8   8   21.84    4.02
  -4  -8  -8   26.48    3.84
  -4  -8  -8   27.56    5.30
  -4  -8  -8   21.87    5.09
   4   8   8   31.78    3.37
  -4   8  -8   26.58    4.99
   4   8   8   21.43    3.37
  -6  -8  -8   29.57    4.25
   6  -8   8   30.82    4.88
  -6  -8  -8   48.04    6.77
  -6  -8  -8   30.21    5.31
   6   8   8   34.77    3.75
   6   8   8   37.82    4.21
  -6   8  -8   52.20    8.82
  -6   8  -8   32.91    5.46
  -8  -8  -8    9.03    4.35
   8  -8   8   11.37    3.26
  -8  -8  -8    5.87    4.57
  -8   8  -8    9.34    4.78
  -8   8  -8    8.96    4.71
   8   8   8   14.25    2.26
  10  -8   8   31.01    6.59
 -10  -8  -8   20.94    5.76
  10  -8   8   28.38    4.55
 -10  -8  -8   19.35    5.93
 -10   8  -8   20.43    5.64
 -10   8  -8   17.37    5.82
  10   8   8   21.33    4.05
   9  -9  -8  102.65    9.64
   9  -9  -8  100.12    9.30
   9  -9  -8   86.19    9.34
  -9   9   8   94.95    8.90
   9   9  -8  108.63    7.93
  -9   9   8  119.32    9.53
  -9   9   8  102.16    8.66
   7  -9  -8   77.03    8.39
   7  -9  -8   77.67    8.26
   7   9  -8   73.62    6.32
  -7   9   8   87.05    8.11
  -7   9   8   77.34    7.35
  -5  -9   8   -2.60    2.12
   5  -9  -8   -0.53    3.82
   5  -9  -8    0.88    3.19
  -5  -9   8    4.99    3.76
   5   9  -8    3.30    2.62
  -5   9   8    1.53    3.42
  -5   9   8   -1.89    2.30
  -5   9   8   -0.46    2.75
  -3  -9   8    6.52    3.52
   3  -9  -8   -0.43    3.26
   3  -9  -8    4.72    3.78
  -3  -9   8   -0.25    2.29
   3   9  -8    1.60    2.32
  -3   9   8    1.93    3.24
  -3   9   8    1.18    2.28
   1  -9  -8   11.05    4.21
   1  -9  -8    8.81    4.38
  -1  -9   8   12.80    3.01
  -1  -9   8   20.10    3.89
   1  -9  -8   17.50    2.54
  -1   9   8   15.55    2.78
  -1   9   8   15.14    3.08
  -1   9   8   16.52    2.72
   1   9  -8   10.89    4.01
   1  -9   8  192.58   10.21
  -1  -9  -8  185.70    9.32
   1  -9   8  170.97   10.49
  -1  -9  -8  172.29   11.33
  -1  -9  -8  160.02   10.84
   1   9   8  185.07    8.61
   1   9   8  193.18   10.02
  -1   9  -8  171.49   11.07
   1   9   8  181.79    9.12
  -3  -9  -8   42.91    4.98
  -3  -9  -8   34.80    5.79
   3  -9   8   35.43    4.94
  -3  -9  -8   51.42    6.53
   3   9   8   40.36    4.59
   3   9   8   36.77    3.08
   3   9   8   42.03    3.89
  -3   9  -8   35.73    5.37
  -5  -9  -8    2.99    3.81
   5  -9   8    8.50    4.02
  -5  -9  -8    6.92    4.09
  -5  -9  -8    7.19    3.04
   5   9   8    8.27    3.01
  -5   9  -8    1.89    3.60
   5   9   8    5.08    2.14
  -5   9  -8    9.39    4.53
  -7  -9  -8  106.62    9.64
   7  -9   8   88.82    6.49
  -7  -9  -8   99.39    9.01
  -7  -9  -8  103.15    9.86
   7   9   8  106.57    6.23
   7   9   8  100.74    6.57
  -7   9  -8   89.01    9.24
  -7   9  -8  101.05    9.31
   9  -9   8   70.91    8.51
  -9  -9  -8   80.81    8.73
   9  -9   8   71.08    6.64
  -9  -9  -8   63.03    8.28
  -9   9  -8   62.22    7.63
  -9   9  -8   67.83    8.44
   9   9   8   83.94    6.71
   8 -10  -8    0.03    4.58
   8 -10  -8    0.87    4.53
   8 -10  -8    1.05    4.50
  -8  10   8    3.97    4.05
  -8  10   8   -4.12    3.53
  -8  10   8   -3.26    3.97
   8  10  -8   -3.08    3.10
   6 -10  -8   48.23    7.03
   6 -10  -8   51.08    7.20
   6  10  -8   55.23    5.65
  -6  10   8   63.82    6.58
  -6  10   8   49.51    6.60
  -4 -10   8   49.13    5.03
  -4 -10   8   56.13    6.88
   4 -10  -8   45.82    6.62
   4 -10  -8   44.70    6.56
  -4  10   8   56.57    5.42
  -4  10   8   39.43    5.81
  -4  10   8   48.38    5.84
   4  10  -8   49.14    4.96
   2 -10  -8   97.99    8.83
   2 -10  -8  109.62    9.42
  -2 -10   8   98.37    6.87
  -2 -10   8  114.48    8.47
  -2  10   8  101.32    7.32
   2  10  -8   89.59    7.97
  -2  10   8   99.90    6.82
  -2  10   8   88.36    8.47
   0 -10   8    5.63    5.28
   0 -10  -8   10.88    3.88
   0 -10   8    0.45    3.61
   0 -10  -8    7.85    2.67
   0 -10  -8   -1.06    3.85
   0  10  -8    4.08    3.50
   0  10   8    9.06    2.49
   0  10   8    9.26    2.47
  -2 -10  -8  114.82    9.53
  -2 -10  -8  117.87    9.88
  -2 -10  -8  117.79    7.53
   2 -10   8  119.28    8.17
   2 -10   8  110.78    8.40
   2  10   8  130.82    8.02
  -2  10  -8  112.50    8.87
   2  10   8  116.73    6.53
   2  10   8  114.73    6.56
  -4 -10  -8  154.06   11.67
   4 -10   8  134.85    9.68
  -4 -10  -8  117.65    9.77
   4 -10   8  117.01    9.93
  -4 -10  -8  109.29    9.97
  -4  10  -8  125.53    9.77
  -4  10  -8  128.59    9.75
   4  10   8  141.44    8.28
   4  10   8  124.26    6.86
  -6 -10  -8   19.87    5.51
  -6 -10  -8   32.41    5.96
  -6 -10  -8   27.75    5.82
   6 -10   8   39.33    5.85
   6  10   8   37.50    4.45
   6  10   8   36.19    3.90
  -6  10  -8   27.53    6.07
  -6  10  -8   23.59    5.32
  -8 -10  -8    1.25    4.60
  -8 -10  -8   -3.03    4.53
   8 -10   8    1.52    5.92
  -8  10  -8    2.29    4.38
   8  10   8    5.06    3.36
  -8  10  -8   -0.07    4.47
   7 -11  -8   83.13    9.32
   7 -11  -8   72.42    9.10
  -7  11   8   74.84    7.63
  -7  11   8   77.96    8.48
  -7  11   8   62.25    7.74
   7  11  -8   59.42    6.90
   5 -11  -8    2.19    4.33
   5 -11  -8   -4.84    4.37
  -5  11   8    3.37    4.95
  -5  11   8    4.49    3.59
   5  11  -8    1.39    2.68
  -5  11   8    7.18    4.37
   3 -11  -8    0.67    4.65
  -3 -11   8   -2.62    3.13
   3 -11  -8   -1.07    4.16
  -3  11   8    1.81    2.97
   3  11  -8    5.56    3.73
  -3  11   8    2.61    4.14
  -3  11   8    0.90    2.86
   1 -11  -8   67.82    8.44
   1 -11  -8   61.26    5.38
  -1 -11   8   56.98    6.16
   1 -11  -8   52.01    7.67
  -1  11   8   53.62    6.55
  -1  11   8   60.27    6.15
  -1  11   8   69.94    5.85
   1  11  -8   70.15    7.60
   1 -11   8   90.65    8.85
  -1 -11  -8   96.43    9.02
   1 -11   8   85.73    8.65
  -1 -11  -8  100.99    9.45
  -1 -11  -8   95.87    6.82
   1  11   8   94.87    6.49
   1  11   8   82.92    7.68
   1  11   8  102.90    8.91
  -1  11  -8   87.24    8.35
   3 -11   8   32.34    6.01
  -3 -11  -8   28.46    4.62
  -3 -11  -8   39.02    6.40
   3 -11   8   32.94    5.76
  -3 -11  -8   38.92    6.31
   3  11   8   34.40    5.02
  -3  11  -8   35.90    5.80
   3  11   8   35.32    3.89
   3  11   8   38.16    4.14
   5 -11   8    9.46    4.83
  -5 -11  -8    5.46    4.81
  -5 -11  -8    1.60    4.80
  -5 -11  -8   -0.06    4.55
   5 -11   8    8.41    5.11
  -5  11  -8    9.35    5.04
   5  11   8    2.50    2.23
   5  11   8    7.20    3.55
  -5  11  -8    7.85    4.40
   4 -12  -8  184.98   13.02
   4 -12  -8  170.48   12.89
  -4 -12   8  167.89    9.88
   4  12  -8  163.08   11.31
  -4  12   8  169.26   11.66
  -4  12   8  163.90   10.28
  -4  12   8  162.93   12.02
   2 -12  -8   22.21    6.27
   2 -12  -8   34.72    6.72
  -2 -12   8   31.13    4.82
  -2  12   8   25.18    4.43
  -2  12   8   32.00    4.51
   2  12  -8   24.97    5.18
  -2  12   8   16.59    5.06
   0 -12  -8    2.89    3.33
   0 -12  -8    3.72    5.05
   0 -12   8   -0.65    3.46
   0 -12  -8    5.93    4.91
   0  12   8    5.79    4.65
   0  12  -8    5.15    4.00
   0  12   8    9.88    3.28
   0  12   8    2.53    3.29
   2 -12   8    9.76    4.93
  -2 -12  -8   29.12    6.33
  -2 -12  -8   25.36    6.28
  -2 -12  -8   27.12    4.53
  -2  12  -8   20.40    4.91
   2  12   8   26.87    3.77
   2  12   8   27.67    5.33
   2  12   8   24.28    3.88
 -14   0   9    1.85    4.07
 -14   0   9   -4.75    4.95
 -14   0   9    3.92    4.62
  14   0  -9    4.12    4.96
  12   0  -9    4.23    4.45
 -12   0   9    0.21    3.64
 -12   0   9    1.85    3.65
 -10   0   9   -7.88    3.50
  10   0  -9    0.55    1.57
  10   0  -9    1.11    3.75
 -10   0   9   -2.40    2.84
   8   0  -9   -2.19    1.50
   8   0  -9   -3.16    2.06
  -8   0   9   -2.45    1.74
  -8   0   9    3.86    2.45
   8   0  -9   -0.74    2.58
  -8   0   9    1.69    2.33
   6   0  -9   -1.17    2.21
  -6   0   9   -2.73    1.91
  -6   0   9   -4.56    1.53
  -6   0   9    1.09    2.00
   6   0  -9    3.33    2.54
  -4   0   9    0.26    2.03
   4   0  -9   -1.72    1.85
   4   0  -9   -0.69    2.27
  -4   0   9    0.38    1.87
  -2   0   9    1.00    1.90
   2   0  -9    0.36    1.61
   2   0  -9    0.30    1.95
  -2   0   9    1.18    1.82
   0   0  -9    0.21    1.54
   0   0   9    1.86    1.77
   0   0   9   -1.67    1.54
  -2   0  -9    2.21    2.44
   2   0   9   -1.70    1.51
   2   0   9   -0.80    1.61
  -2   0  -9    0.46    1.65
   4   0   9    0.10    1.75
   4   0   9    0.62    1.77
  -4   0  -9    2.57    2.29
  -4   0  -9   -0.47    1.81
  -6   0  -9    1.24    2.60
  -6   0  -9   -0.70    2.07
   6   0   9    2.70    2.23
  -6   0  -9    1.29    2.04
  -6   0  -9    1.76    1.24
   6   0   9    1.46    1.74
   8   0   9   -3.07    2.59
  -8   0  -9    1.10    2.45
  -8   0  -9   -0.50    2.77
  -8   0  -9    0.56    5.40
  -8   0  -9    0.43    1.57
 -10   0  -9   -1.28    3.25
 -10   0  -9    5.31    3.86
  10   0   9    2.32    3.42
 -12   0  -9   -9.04    4.58
 -12   0  -9   -0.23    3.49
  12   0   9   -3.31    3.55
  13  -1  -9    5.84    4.46
 -13  -1   9   10.13    4.64
 -13  -1   9    5.53    4.30
 -13   1   9    2.14    4.29
  13   1  -9    7.94    4.97
 -13   1   9   11.06    4.34
 -13   1   9   13.51    5.33
  11  -1  -9   19.57    2.75
 -11  -1   9   12.72    3.65
  11  -1  -9   13.23    4.40
 -11  -1   9   11.86    4.53
 -11  -1   9   19.18    4.31
 -11   1   9   21.14    4.95
 -11   1   9   17.02    4.18
  11   1  -9   19.56    5.10
  -9  -1   9   40.09    4.65
   9  -1  -9   41.32    4.80
  -9  -1   9   50.26    5.15
  -9  -1   9   36.35    4.85
   9  -1  -9   40.55    3.76
  -9   1   9   42.72    4.92
   9   1  -9   36.14    4.87
  -9   1   9   42.08    5.15
  -9   1   9   30.21    4.00
  -7  -1   9   -2.93    2.24
  -7  -1   9    1.61    2.34
   7  -1  -9   -0.35    1.67
   7  -1  -9    0.86    2.41
   7  -1  -9    3.89    2.10
   7   1  -9    1.17    2.13
  -7   1   9   -0.58    1.75
   7   1  -9    2.99    2.15
  -7   1   9    1.30    2.03
  -7   1   9    3.38    2.25
   5  -1  -9   13.91    2.94
  -5  -1   9   17.45    3.06
   5  -1  -9   13.22    2.24
  -5  -1   9   12.53    2.73
   5  -1  -9   11.92    2.99
   5   1  -9   16.17    3.21
  -5   1   9   15.19    2.95
  -5   1   9   14.29    2.64
   5   1  -9   12.39    2.54
  -5   1   9   14.83    3.13
   3  -1  -9    6.24    2.36
   3  -1  -9    5.92    2.14
  -3  -1   9    5.20    2.08
   3  -1  -9    2.99    1.73
  -3  -1   9    6.49    2.19
   3   1  -9    5.05    2.22
  -3   1   9    4.28    2.15
   3   1  -9    5.00    1.92
  -3   1   9    5.03    2.12
  -1  -1   9    1.08    1.81
  -1  -1   9    4.95    2.01
   1  -1  -9    1.36    1.74
  -1   1   9    3.06    1.88
  -1   1   9    3.34    1.85
   1   1  -9    2.44    1.96
   1   1  -9    1.06    1.41
  -1  -1  -9   44.34    4.08
   1  -1   9   38.63    4.28
  -1  -1  -9   41.47    4.53
   1  -1   9   39.95    3.91
  -1   1  -9   43.37    4.47
   1   1   9   41.61    4.09
  -1   1  -9   45.53    3.64
   1   1   9   39.76    3.83
  -3  -1  -9   18.99    2.21
   3  -1   9   24.88    3.12
  -3  -1  -9   27.64    3.74
  -3  -1  -9   22.27    1.85
   3  -1   9   22.80    3.52
  -3  -1  -9   17.08    2.99
   3   1   9   21.26    3.16
  -3   1  -9   33.26    4.23
  -3   1  -9   23.02    2.99
   3   1   9   24.38    3.11
  -5  -1  -9   40.11    4.34
   5  -1   9   38.57    3.82
  -5  -1  -9   45.39    4.35
   5  -1   9   47.54    4.72
  -5   1  -9   39.05    4.13
  -5   1  -9   40.23    3.48
   5   1   9   36.85    4.30
  -5   1  -9   39.29    4.78
   5   1   9   43.26    3.73
  -7  -1  -9   44.00    4.73
  -7  -1  -9   22.11    3.95
   7  -1   9   44.44    4.84
  -7  -1  -9   28.46    4.17
  -7   1  -9   31.92    3.49
   7   1   9   26.24    3.96
  -7   1  -9   34.12    4.78
  -7   1  -9   31.98    4.12
  -7   1  -9   18.48    3.89
   7   1   9   33.51    3.29
   9  -1   9    9.07    3.85
  -9  -1  -9    8.50    3.82
  -9  -1  -9   10.22    3.79
  -9  -1  -9   13.54    3.40
   9   1   9    6.91    3.49
  -9   1  -9    7.00    3.58
  -9   1  -9   13.46    4.47
  -9   1  -9   12.40    2.37
 -11  -1  -9    4.90    4.77
 -11  -1  -9   -2.42    3.16
  11  -1   9   -0.20    3.61
 -11   1  -9    0.57    4.23
  11   1   9    4.47    3.52
 -11   1  -9    1.27    3.63
 -11   1  -9    8.27    2.77
 -13  -1  -9   14.85    5.43
  13  -1   9   24.19    5.51
  13   1   9   16.75    5.14
 -13   1  -9   13.06    4.86
 -13   1  -9   10.20    5.72
 -14  -2   9   43.49    6.44
 -14  -2   9   56.60   11.70
  14  -2  -9   44.86    4.80
  14  -2  -9   25.31    6.49
 -14   2   9   44.60    7.55
 -14   2   9   51.74    7.05
 -14   2   9   44.32    7.25
  14   2  -9   51.47    7.75
 -12  -2   9   16.91    4.85
  12  -2  -9   28.05    6.10
 -12  -2   9   21.02    4.75
  12  -2  -9   23.78    3.40
 -12   2   9   26.29    5.48
 -12   2   9   26.01    5.08
  12   2  -9   18.85    5.46
 -12   2   9   21.91    5.20
  10  -2  -9   -2.07    2.15
 -10  -2   9    0.65    2.93
 -10  -2   9    1.20    3.53
  10  -2  -9    6.73    5.43
  10  -2  -9    7.05    4.02
 -10   2   9    4.93    3.61
  10   2  -9    3.52    4.24
  -8  -2   9    0.23    2.53
  -8  -2   9    7.03    2.74
   8  -2  -9   -2.62    2.49
   8  -2  -9    4.31    2.04
   8  -2  -9    0.08    2.44
  -8   2   9    2.71    2.37
   8   2  -9    6.40    2.63
  -8   2   9    3.18    2.42
  -8   2   9    5.10    2.54
   8   2  -9    5.58    2.58
  -6  -2   9   91.54    6.63
  -6  -2   9   88.45    6.71
   6  -2  -9  104.59    6.85
   6  -2  -9   95.65    5.94
   6  -2  -9   96.41    7.01
  -6   2   9   99.13    6.19
  -6   2   9   99.61    6.62
   6   2  -9  108.56    7.02
   6   2  -9   97.90    6.17
  -6   2   9   85.59    6.63
   4  -2  -9   15.57    2.82
   4  -2  -9   16.97    2.75
  -4  -2   9   13.73    2.56
   4  -2  -9   13.09    2.89
  -4  -2   9    9.74    2.64
   4   2  -9   14.54    2.49
  -4   2   9   18.02    3.02
   4   2  -9   11.51    2.74
  -4   2   9   14.09    2.35
  -4   2   9   15.99    3.19
   2  -2  -9    6.49    2.22
   2  -2  -9    3.51    1.99
  -2  -2   9    6.45    2.29
  -2  -2   9    8.33    2.21
   2  -2  -9    3.73    2.12
  -2   2   9    5.73    1.95
  -2   2   9    5.02    1.76
   2   2  -9    3.59    1.57
   2   2  -9    5.12    2.07
   0  -2  -9    5.31    2.11
   0  -2  -9    6.71    2.33
   0  -2   9    2.25    2.05
   0  -2   9    7.51    2.33
   0   2   9    8.15    2.24
   0   2  -9    8.18    1.84
   0   2   9    6.11    2.02
  -2  -2  -9   15.58    2.77
   2  -2   9   10.00    2.25
  -2  -2  -9   13.70    2.67
  -2  -2  -9   15.63    3.26
   2  -2   9   17.16    3.09
   2   2   9   11.65    2.40
  -2   2  -9   15.30    3.06
   2   2   9   13.92    2.74
  -2   2  -9   13.36    2.29
  -4  -2  -9  149.93    8.42
   4  -2   9  144.16    8.60
  -4  -2  -9  151.15    8.41
  -4  -2  -9  148.55    8.58
   4  -2   9  156.77    8.16
   4   2   9  144.02    7.64
   4   2   9  134.85    8.29
  -4   2  -9  156.07    8.94
  -4   2  -9  154.17    7.83
  -6  -2  -9    5.90    2.82
  -6  -2  -9   -2.33    2.19
  -6  -2  -9   -1.46    2.11
   6  -2   9    2.64    2.33
  -6   2  -9   -0.79    1.99
  -6   2  -9    0.87    1.85
  -6   2  -9   -0.44    2.78
   6   2   9    4.41    1.89
   6   2   9    3.36    1.97
  -8  -2  -9    3.73    2.70
  -8  -2  -9    3.42    3.46
   8  -2   9   -0.37    3.10
   8   2   9    3.09    3.11
  -8   2  -9    0.69    2.90
  -8   2  -9    1.51    2.18
  -8   2  -9    2.07    3.36
  10  -2   9   33.85    5.65
 -10  -2  -9   44.55    6.55
 -10  -2  -9   55.36    6.73
 -10  -2  -9   68.79    7.50
 -10   2  -9   60.88    6.71
  10   2   9   53.46    6.54
 -10   2  -9   46.81    4.92
 -10   2  -9   43.71    6.34
  12  -2   9   29.69    5.77
 -12  -2  -9   32.96    6.02
 -12   2  -9   33.19    4.33
 -12   2  -9   23.08    5.41
 -12   2  -9   26.46    5.79
  12   2   9   21.80    5.15
 -13  -3   9    5.37    4.34
  13  -3  -9    3.98    3.10
  13  -3  -9    5.64    4.41
 -13  -3   9   -3.98    4.41
  13  -3  -9    5.60    5.14
 -13   3   9    1.22    4.04
  13   3  -9   -6.19    4.20
 -13   3   9    5.24    5.05
 -13   3   9    6.06    4.48
  11  -3  -9   10.50    4.66
  11  -3  -9   18.92    3.42
 -11  -3   9   12.93    4.60
  11  -3  -9   20.24    4.81
 -11   3   9   18.33    4.97
 -11   3   9   20.14    4.64
  11   3  -9   14.68    4.44
 -11   3   9   16.22    4.55
   9  -3  -9  108.37   10.77
  -9  -3   9  102.03    7.46
  -9  -3   9   77.25    8.57
   9  -3  -9   93.99    8.21
   9  -3  -9   99.65    6.34
   9   3  -9  107.22    7.60
  -9   3   9  107.48    7.00
  -9   3   9   82.10    7.76
  -7  -3   9  100.82    7.09
   7  -3  -9  105.17    7.29
   7  -3  -9   92.34    6.38
   7  -3  -9  103.26    7.22
  -7  -3   9  116.77    7.51
  -7   3   9  102.99    6.65
   7   3  -9  106.27    6.50
  -7   3   9  109.72    6.99
  -7   3   9  100.15    7.00
   7   3  -9   95.72    6.97
   5  -3  -9   20.68    3.40
   5  -3  -9   26.06    3.35
  -5  -3   9   15.36    3.05
   5  -3  -9   18.17    3.66
  -5  -3   9   18.40    3.17
   5   3  -9   22.97    3.66
  -5   3   9   19.98    2.76
   5   3  -9   25.83    3.04
  -5   3   9   24.34    3.58
  -5   3   9   15.73    3.01
   3  -3  -9   39.34    4.20
  -3  -3   9   41.27    4.42
  -3  -3   9   42.13    4.49
   3  -3  -9   40.99    4.09
   3  -3  -9   37.22    4.46
   3   3  -9   36.05    4.22
   3   3  -9   38.20    3.38
  -3   3   9   38.66    3.46
  -3   3   9   34.05    4.00
  -3   3   9   42.74    4.23
  -1  -3   9  132.61    7.91
  -1  -3   9  136.25    7.79
   1  -3  -9  139.72    7.20
   1  -3  -9  146.13    8.10
   1  -3  -9  125.19    7.78
   1   3  -9  146.88    6.71
  -1   3   9  125.36    7.56
  -1   3   9  140.26    7.72
  -1  -3  -9   55.08    4.88
  -1  -3  -9   51.27    4.51
   1  -3   9   46.94    4.75
  -1  -3  -9   56.47    4.44
   1  -3   9   59.37    4.69
  -1  -3  -9   55.08    3.37
  -1  -3  -9   45.74    4.73
   1   3   9   46.44    4.42
   1   3   9   55.26    4.41
  -1   3  -9   53.15    3.64
  -1   3  -9   59.86    5.07
  -3  -3  -9    6.05    2.38
  -3  -3  -9    2.64    1.92
  -3  -3  -9    7.80    2.65
   3  -3   9    2.41    2.10
   3  -3   9    5.49    2.26
  -3   3  -9    6.16    1.76
   3   3   9    4.36    1.87
   3   3   9    2.16    1.78
  -3   3  -9    1.13    2.41
   5  -3   9   55.58    5.51
  -5  -3  -9   70.80    5.84
  -5  -3  -9   66.54    5.54
  -5  -3  -9   74.39    5.72
   5   3   9   67.17    4.74
   5   3   9   69.71    5.11
  -5   3  -9   71.67    4.90
  -5   3  -9   66.06    6.09
  -7  -3  -9   56.47    5.41
  -7  -3  -9   67.33    5.78
   7  -3   9   57.13    5.92
  -7  -3  -9   76.65    6.93
  -7   3  -9   68.79    4.99
   7   3   9   71.69    5.49
  -7   3  -9   64.77    6.35
   7   3   9   68.17    4.44
  -9  -3  -9   22.28    4.75
   9  -3   9   29.38    5.22
  -9  -3  -9   18.64    5.03
  -9   3  -9   24.28    3.67
  -9   3  -9   26.19    5.23
   9   3   9   20.87    4.26
  -9   3  -9   23.43    4.53
  11  -3   9   -2.74    4.08
 -11  -3  -9    7.01    4.73
 -11  -3  -9    4.85    4.06
 -11   3  -9    2.09    4.45
 -11   3  -9    6.20    3.11
  11   3   9    6.25    3.64
 -11   3  -9    9.33    4.43
  12  -4  -9   48.11    6.97
  12  -4  -9   58.53    7.80
 -12  -4   9   61.34    7.26
  12  -4  -9   65.02    5.91
 -12  -4   9   68.63    7.50
 -12   4   9   70.96    8.20
 -12   4   9   55.55    6.89
 -12   4   9   77.59    8.13
  12   4  -9   47.28    6.98
  10  -4  -9   18.64    3.56
  10  -4  -9   18.15    4.82
 -10  -4   9   20.47    4.15
 -10  -4   9   15.72    4.64
  10  -4  -9   21.32    4.77
  10   4  -9   26.34    5.49
 -10   4   9   25.32    4.97
 -10   4   9   16.24    4.51
 -10   4   9   10.38    3.94
  -8  -4   9   36.56    5.13
  -8  -4   9   34.68    4.68
   8  -4  -9   42.35    6.07
   8  -4  -9   34.27    4.27
  -8   4   9   36.49    4.36
  -8   4   9   29.55    7.40
   8   4  -9   41.07    5.09
  -8   4   9   40.54    5.34
   6  -4  -9  117.73    7.30
  -6  -4   9  114.00    7.53
  -6  -4   9  122.23    7.97
   6  -4  -9  113.34    7.62
   6  -4  -9  125.36    8.04
  -6   4   9  114.69    7.59
   6   4  -9  126.75    7.79
  -6   4   9  113.75    7.65
   6   4  -9  126.21    6.74
  -6   4   9  119.54    7.15
   4  -4  -9  329.21   15.54
   4  -4  -9  319.49   15.58
  -4  -4   9  322.90   15.33
  -4  -4   9  324.24   15.39
   4  -4  -9  332.58   13.48
   4  -4  -9  321.54   15.10
   4   4  -9  314.48   13.79
   4   4  -9  317.35   15.01
  -4   4   9  312.67   15.13
  -4   4   9  309.95   15.18
  -4   4   9  332.03   14.43
   2  -4  -9    7.22    2.26
  -2  -4   9   11.88    2.96
  -2  -4   9    7.60    2.43
   2  -4  -9    9.82    2.62
  -2   4   9    6.72    2.35
   2   4  -9    8.62    2.23
   2   4  -9   11.49    1.62
  -2   4   9    5.42    2.19
  -2   4   9    6.56    1.66
   0  -4  -9  147.56    8.74
   0  -4  -9  147.08    8.71
   0  -4  -9  161.10    8.48
   0  -4   9  151.53    8.57
   0  -4  -9  153.74    7.85
   0  -4   9  149.04    8.88
   0   4  -9  156.03    6.90
   0   4   9  151.22    8.31
   0   4   9  156.68    8.37
   0   4  -9  144.20    8.60
   2  -4   9  207.39   11.09
  -2  -4  -9  205.97   10.42
  -2  -4  -9  217.28   11.47
  -2  -4  -9  216.61   11.16
   2  -4   9  218.23   10.80
   2   4   9  203.24   10.43
   2   4   9  202.55   10.25
  -2   4  -9  216.47    9.30
  -2   4  -9  205.15   11.21
  -4  -4  -9   48.64    5.09
   4  -4   9   44.14    4.94
  -4  -4  -9   47.57    4.97
  -4  -4  -9   52.73    4.82
   4   4   9   54.51    4.47
  -4   4  -9   43.28    5.03
   4   4   9   51.20    4.11
  -6  -4  -9    8.07    2.72
   6  -4   9    7.89    2.90
  -6  -4  -9    7.47    2.37
  -6  -4  -9   12.59    3.47
  -6   4  -9    9.84    2.65
   6   4   9    8.69    2.34
  -6   4  -9   -0.36    2.83
   6   4   9    9.10    2.18
  -8  -4  -9   18.98    4.67
  -8  -4  -9   19.79    4.65
   8  -4   9   15.32    4.79
   8   4   9   27.50    3.16
   8   4   9   24.72    4.27
  -8   4  -9   25.41    3.61
  -8   4  -9   28.93    4.95
 -10  -4  -9  100.38    9.21
 -10  -4  -9  102.62    9.44
  10  -4   9   99.50    9.24
 -10   4  -9  101.46    9.60
  10   4   9   95.38    7.99
 -10   4  -9  104.53    7.56
 -10   4  -9  104.66    9.03
  12  -4   9   64.86    8.02
 -12  -4  -9   62.84    8.18
 -12   4  -9   74.93    9.55
  12   4   9   66.59    7.61
 -12   4  -9   58.26    8.10
 -12   4  -9   75.01    6.96
  13  -5  -9    2.85    3.33
  13  -5  -9    7.60    5.57
 -13  -5   9   -3.79    4.02
 -13  -5   9    3.48    5.08
  13  -5  -9   -1.63    4.61
  13   5  -9   -3.08    4.27
 -13   5   9    4.27    4.65
 -13   5   9   -1.01    4.73
 -13   5   9    3.20    4.62
  11  -5  -9  132.53   10.54
  11  -5  -9  124.61   10.69
 -11  -5   9  146.31   10.15
 -11  -5   9  136.84   10.01
  11  -5  -9  129.11    8.55
 -11   5   9  135.05   10.33
 -11   5   9  134.62   10.25
  11   5  -9  129.05   10.09
 -11   5   9  125.91    9.89
  -9  -5   9  161.09   10.92
   9  -5  -9  182.95   11.84
  -9  -5   9  189.46   10.85
   9  -5  -9  174.36    9.88
   9  -5  -9  186.19   11.73
  -9   5   9  181.25   10.45
   9   5  -9  163.56   10.35
  -9   5   9  170.96   10.81
  -9   5   9  166.43   10.87
  -7  -5   9   14.48    4.10
  -7  -5   9   18.32    3.72
   7  -5  -9   21.20    4.15
   7  -5  -9   10.98    3.26
   7   5  -9   18.66    3.68
  -7   5   9   16.48    4.15
  -7   5   9   12.18    2.95
  -7   5   9   10.50    3.62
   7   5  -9   18.98    2.86
   5  -5  -9    1.61    2.40
  -5  -5   9    1.15    1.95
  -5  -5   9    0.72    1.46
   5  -5  -9   -3.38    2.29
   5  -5  -9    3.14    2.34
  -5  -5   9    2.04    2.70
   5   5  -9   -1.15    2.20
  -5   5   9    3.92    2.18
  -5   5   9    2.75    1.93
   5   5  -9    2.21    1.64
  -5   5   9    1.93    2.21
  -3  -5   9   88.81    6.29
   3  -5  -9   90.49    4.89
   3  -5  -9   88.43    6.44
  -3  -5   9   88.46    6.65
   3  -5  -9   89.39    6.61
   3  -5  -9   89.48    6.68
   3   5  -9   88.68    5.37
   3   5  -9   89.89    6.11
  -3   5   9  104.85    6.34
  -3   5   9   90.69    6.32
  -3   5   9   92.61    5.49
   1  -5  -9  338.96   16.66
  -1  -5   9  344.31   16.22
   1  -5  -9  345.12   16.50
  -1  -5   9  334.57   16.19
   1  -5  -9  320.71   16.28
   1   5  -9  346.11   13.70
  -1   5   9  359.49   14.56
  -1   5   9  353.19   15.88
  -1   5   9  352.77   15.90
  -1  -5  -9   48.13    4.90
  -1  -5  -9   43.30    4.48
  -1  -5  -9   54.91    5.09
   1  -5   9   38.99    4.18
  -1  -5  -9   51.47    4.25
   1  -5   9   40.06    4.83
   1   5   9   41.14    3.99
  -1   5  -9   43.73    4.58
   1   5   9   52.07    4.48
  -3  -5  -9   -0.82    2.82
  -3  -5  -9   -2.53    2.13
  -3  -5  -9    0.76    2.20
   3  -5   9   -2.51    2.38
  -3  -5  -9    1.69    2.21
   3   5   9    1.26    1.81
  -3   5  -9   -0.23    2.26
   3   5   9    0.73    1.89
  -5  -5  -9  136.34    8.56
  -5  -5  -9  135.54    8.20
   5  -5   9  135.75    8.62
  -5   5  -9  127.62    8.41
   5   5   9  134.34    7.56
  -5   5  -9  122.55    7.69
   5   5   9  125.68    7.03
  -7  -5  -9  201.05   13.24
   7  -5   9  252.27   14.46
  -7  -5  -9  227.70   12.73
  -7   5  -9  247.99   12.07
  -7   5  -9  240.36   13.14
   7   5   9  239.61   10.68
  -9  -5  -9   14.97    5.10
  -9  -5  -9   22.53    5.23
   9  -5   9   15.89    4.84
  -9   5  -9   17.86    5.33
  -9   5  -9   15.65    3.56
   9   5   9    7.85    3.45
 -11  -5  -9   28.11    6.10
 -11  -5  -9   14.64    5.20
  11  -5   9   25.05    5.92
 -11   5  -9   14.77    4.24
 -11   5  -9    8.11    5.02
 -11   5  -9   11.08    5.75
  11   5   9   12.84    4.30
 -12  -6   9   88.41    9.06
  12  -6  -9   79.13    9.47
  12  -6  -9   70.62    8.66
 -12  -6   9  100.82   10.14
  12  -6  -9   94.95    9.76
  12   6  -9   89.27    9.49
 -12   6   9   80.73    9.07
 -12   6   9   95.18    9.02
 -12   6   9   80.53    8.95
 -10  -6   9    9.14    4.31
  10  -6  -9    2.96    3.24
  10  -6  -9   -1.39    4.44
  10  -6  -9   11.47    5.01
 -10  -6   9    1.01    3.47
 -10   6   9    2.58    3.95
 -10   6   9   -2.74    3.74
 -10   6   9    3.74    3.66
  10   6  -9   11.11    5.05
  -8  -6   9   61.50    6.79
  -8  -6   9   57.61    6.60
   8  -6  -9   54.61    6.99
   8  -6  -9   55.13    5.59
   8  -6  -9   45.51    6.35
  -8   6   9   58.37    6.84
  -8   6   9   53.80    5.49
   8   6  -9   47.27    5.45
  -8   6   9   50.17    6.09
  -6  -6   9   93.19    7.18
   6  -6  -9   91.34    6.74
  -6  -6   9   66.98    8.03
   6  -6  -9   73.64    7.25
   6  -6  -9   90.18    7.08
   6   6  -9   80.57    6.49
  -6   6   9   67.76    6.76
   6   6  -9   97.30    5.14
  -6   6   9   83.96    7.49
  -6   6   9   84.93    6.18
   4  -6  -9   66.00    5.65
  -4  -6   9   72.23    4.45
  -4  -6   9   62.21    5.60
  -4  -6   9   64.87    5.88
   4  -6  -9   54.01    5.56
   4  -6  -9   77.62    6.06
   4   6  -9   56.04    5.15
  -4   6   9   66.15    5.60
  -4   6   9   65.85    4.99
   4   6  -9   66.67    3.39
  -4   6   9   66.55    5.43
   2  -6  -9   30.74    4.20
  -2  -6   9   18.28    3.66
   2  -6  -9   26.06    2.73
  -2  -6   9   28.61    4.35
   2  -6  -9   17.40    3.43
  -2   6   9   26.75    2.95
   2   6  -9   24.20    3.42
  -2   6   9   24.43    3.37
  -2   6   9   24.61    3.57
   0  -6  -9   21.23    3.72
   0  -6  -9   24.88    3.06
   0  -6  -9   24.11    3.80
   0  -6   9   21.35    3.52
   0  -6  -9   13.40    3.32
   0  -6   9   20.42    3.72
   0   6   9   20.13    2.10
   0   6  -9   16.98    3.31
   0   6   9   15.24    2.91
   0   6   9   18.60    2.94
  -2  -6  -9  158.08    9.88
   2  -6   9  180.57   10.11
  -2  -6  -9  173.43    9.03
  -2  -6  -9  170.70    9.93
  -2  -6  -9  164.25   10.20
   2   6   9  188.67    9.20
  -2   6  -9  162.50   10.01
   2   6   9  170.65    9.06
   4  -6   9   76.33    6.41
  -4  -6  -9   75.46    5.96
   4   6   9   81.20    5.37
   4   6   9   74.91    5.40
  -4   6  -9   74.53    6.29
   6  -6   9   23.89    4.24
  -6  -6  -9   19.36    4.84
  -6  -6  -9   27.45    4.33
   6   6   9   20.59    3.34
  -6   6  -9   19.40    3.52
   6   6   9   20.08    3.13
  -8  -6  -9   29.63    5.36
  -8  -6  -9   27.79    5.56
   8  -6   9   36.86    6.20
   8   6   9   35.36    3.50
  -8   6  -9   34.68    4.65
   8   6   9   32.66    4.58
  -8   6  -9   28.76    5.96
 -10  -6  -9  126.28   10.72
  10  -6   9  152.34   11.62
 -10  -6  -9  139.59   11.60
  10   6   9  139.91    9.33
 -10   6  -9  152.24    9.81
 -10   6  -9  155.04   12.07
 -11  -7   9  102.49   10.20
  11  -7  -9   77.24    8.82
  11  -7  -9   84.39    9.44
 -11  -7   9  106.93    9.22
  11  -7  -9   99.42    9.93
 -11   7   9  100.28    9.39
  11   7  -9   89.85    9.22
 -11   7   9  105.77    9.13
 -11   7   9  102.46    9.64
   9  -7  -9   85.44    8.82
  -9  -7   9   89.16    8.51
  -9  -7   9   74.30    7.86
   9  -7  -9   79.09    8.15
   9  -7  -9   79.03    8.64
   9   7  -9   80.73    8.38
  -9   7   9   86.41    8.55
  -9   7   9   74.93    8.30
  -9   7   9   76.12    7.75
  -7  -7   9   24.67    4.55
   7  -7  -9   25.07    5.12
   7  -7  -9   24.22    5.20
   7  -7  -9   22.68    5.32
  -7  -7   9   28.38    4.91
  -7   7   9   25.14    4.44
   7   7  -9   31.04    3.14
  -7   7   9   24.81    3.79
   7   7  -9   28.35    4.22
  -7   7   9   16.95    4.23
  -5  -7   9    6.35    3.62
  -5  -7   9   12.41    1.97
   5  -7  -9    6.40    3.40
   5  -7  -9    0.31    2.59
   5  -7  -9   10.21    4.19
  -5  -7   9    7.34    3.63
  -5   7   9    7.85    2.71
   5   7  -9    8.92    2.95
  -5   7   9   12.99    3.77
  -5   7   9   19.15    4.48
   3  -7  -9   28.25    4.35
   3  -7  -9   38.67    2.79
   3  -7  -9   28.09    5.22
  -3  -7   9   37.23    4.79
  -3  -7   9   38.80    3.98
  -3  -7   9   27.25    4.54
  -3   7   9   33.90    3.62
  -3   7   9   38.68    4.96
  -3   7   9   35.07    4.32
   3   7  -9   40.35    4.38
   1  -7  -9   60.61    5.84
  -1  -7   9   65.60    6.39
   1  -7  -9   61.83    4.49
  -1   7   9   69.26    5.55
  -1   7   9   71.71    4.51
  -1   7   9   73.03    5.20
   1   7  -9   72.69    8.84
   1  -7   9  133.80    8.49
  -1  -7  -9  129.44    7.27
   1   7   9  132.49    7.89
   1   7   9  124.37    7.28
  -3  -7  -9    0.67    3.42
  -3  -7  -9   -2.93    2.37
   3  -7   9   -2.28    2.57
  -3  -7  -9    0.16    4.02
   3   7   9    3.32    2.33
  -3   7  -9   -2.62    2.93
   3   7   9    0.21    1.76
  -5  -7  -9   64.13    7.47
  -5  -7  -9   77.36    8.13
  -5  -7  -9   73.82    6.44
   5  -7   9   89.53    7.25
  -5   7  -9   79.31    8.21
   5   7   9   84.90    5.78
  -5   7  -9   87.86    6.62
   5   7   9   80.57    5.55
   7  -7   9  100.62   12.53
  -7  -7  -9  120.54   10.17
  -7  -7  -9  129.32    9.95
  -7   7  -9  134.87   10.26
   7   7   9  129.95    8.39
  -7   7  -9  147.22    9.27
   7   7   9  146.48    7.33
   9  -7   9    7.87    5.02
  -9  -7  -9    9.07    5.14
  -9  -7  -9   13.39    5.25
  -9   7  -9   13.12    4.99
  -9   7  -9   18.41    5.88
   9   7   9   12.55    3.74
  10  -8  -9    7.77    4.61
 -10  -8   9   -5.78    3.85
  10  -8  -9    1.56    4.37
  10  -8  -9    2.73    5.18
 -10   8   9   -5.16    3.94
 -10   8   9   -1.12    3.92
  10   8  -9    4.61    4.87
 -10   8   9   -2.07    4.15
   8  -8  -9    8.87    4.55
  -8  -8   9    5.87    3.98
   8  -8  -9    3.48    4.33
  -8  -8   9    3.62    4.46
   8  -8  -9    3.82    4.38
  -8   8   9    6.61    4.18
  -8   8   9    2.52    3.85
  -8   8   9    6.70    3.74
   8   8  -9    1.80    3.09
   8   8  -9    0.08    2.26
  -6  -8   9  109.87    8.22
   6  -8  -9   93.86    8.76
  -6  -8   9   84.92    8.20
   6  -8  -9   97.85    8.26
   6  -8  -9   81.14    8.51
  -6   8   9   95.51    7.60
  -6   8   9   88.75    8.51
  -6   8   9  100.68    7.16
   6   8  -9   99.20    7.04
   4  -8  -9  103.70    8.43
  -4  -8   9   87.01    5.48
  -4  -8   9   96.29    7.78
   4  -8  -9   82.02    8.30
   4   8  -9   87.92    6.22
  -4   8   9   90.71    6.41
  -4   8   9   88.04    7.12
  -4   8   9   75.84    7.82
  -2  -8   9   -4.67    3.04
  -2  -8   9   -5.91    2.28
   2  -8  -9   -0.65    3.69
   2  -8  -9   -2.49    3.24
   2  -8  -9    0.29    1.96
  -2   8   9   -3.39    3.83
  -2   8   9   -1.43    2.01
  -2   8   9    6.49    3.10
   2   8  -9   -2.62    2.89
   0  -8   9   44.35    5.22
   0  -8  -9   39.26    4.07
   0  -8  -9   31.45    5.43
   0  -8  -9   40.88    6.26
   0   8   9   35.12    3.43
   0   8  -9   36.16    5.52
   0   8   9   38.76    4.75
   0   8   9   37.54    4.26
  -2  -8  -9   47.55    4.60
  -2  -8  -9   26.28    4.94
   2  -8   9   52.04    5.74
  -2  -8  -9   42.42    6.44
   2   8   9   46.71    4.10
   2   8   9   46.64    4.99
  -2   8  -9   37.56    5.62
   4  -8   9   23.80    4.32
  -4  -8  -9   29.30    5.65
  -4  -8  -9   31.41    4.07
  -4  -8  -9   17.31    4.70
   4   8   9   20.70    3.12
  -4   8  -9   23.50    5.06
   4   8   9   23.03    3.62
  -6  -8  -9   -0.37    4.41
  -6  -8  -9    2.30    3.89
  -6  -8  -9   -4.49    3.80
   6  -8   9    4.92    3.63
  -6   8  -9   -1.17    4.00
   6   8   9    7.46    2.85
   6   8   9    2.75    2.87
  -6   8  -9    5.10    4.28
  -8  -8  -9   -1.21    4.05
   8  -8   9   -0.73    5.06
  -8  -8  -9    5.08    4.37
   8   8   9    2.52    2.92
  -8   8  -9   -4.96    3.93
  -8   8  -9    5.45    4.85
   9  -9  -9   22.92    6.05
   9  -9  -9   11.77    5.30
   9  -9  -9   16.92    5.29
  -9   9   9   17.99    5.47
  -9   9   9   10.13    4.34
  -9   9   9   15.22    5.15
   7  -9  -9    9.36    4.49
   7  -9  -9   17.87    5.27
   7  -9  -9   14.26    5.17
  -7   9   9   11.68    4.60
  -7   9   9   18.00    4.41
  -7   9   9   20.26    4.92
   7   9  -9   16.82    3.92
   5  -9  -9    7.72    4.85
  -5  -9   9    2.97    4.28
   5  -9  -9   -1.44    3.73
  -5   9   9   -3.02    3.95
  -5   9   9   -2.04    2.69
   5   9  -9   -2.29    2.76
   3  -9  -9   10.50    4.52
   3  -9  -9   29.83    5.49
  -3  -9   9   26.13    4.85
  -3  -9   9   26.67    3.60
  -3   9   9   21.80    4.68
  -3   9   9   29.61    3.92
  -3   9   9   24.82    4.18
   1  -9  -9   11.79    4.46
   1  -9  -9    9.97    2.69
  -1  -9   9    9.46    4.04
  -1  -9   9   12.29    3.33
   1  -9  -9    9.33    4.02
  -1   9   9    9.03    3.95
  -1   9   9   17.21    3.73
  -1   9   9   13.28    2.78
   1   9  -9   13.28    4.00
  -1  -9  -9   26.00    3.51
   1  -9   9   20.34    3.95
  -1  -9  -9   13.14    4.39
   1  -9   9   16.73    4.45
  -1  -9  -9   18.23    4.95
  -1   9  -9   13.90    4.09
   1   9   9   18.81    2.50
   1   9   9   19.75    3.81
  -3  -9  -9    1.40    2.91
   3  -9   9    1.78    3.63
  -3  -9  -9    2.41    3.79
  -3  -9  -9   -4.17    3.24
  -3   9  -9    3.82    3.51
   3   9   9    7.06    3.03
  -5  -9  -9   26.33    5.42
  -5  -9  -9   24.01    5.49
  -5  -9  -9   32.52    4.84
   5  -9   9   21.91    4.78
   5   9   9   33.72    4.09
  -5   9  -9   18.61    5.11
  -5   9  -9   25.58    5.48
   5   9   9   25.71    3.83
   7  -9   9    1.19    5.63
  -7  -9  -9   -6.50    4.55
  -7  -9  -9   -1.25    4.21
  -7   9  -9   -2.88    4.26
   7   9   9   -0.80    3.04
  -7   9  -9    1.46    4.71
   7   9   9    0.16    3.03
   8 -10  -9    3.30    4.60
   8 -10  -9   -0.39    4.33
   8 -10  -9    2.11    5.07
  -8  10   9    1.01    3.92
  -8  10   9   -0.66    4.40
  -8  10   9    0.17    4.74
   8  10  -9    5.60    3.82
   6 -10  -9    5.65    4.97
   6 -10  -9    4.60    4.90
   6  10  -9    7.28    3.56
  -6  10   9   -1.17    3.46
  -6  10   9    1.45    4.36
  -6  10   9    1.34    4.44
  -4 -10   9    6.31    4.88
   4 -10  -9    1.11    4.64
  -4 -10   9    5.01    3.24
   4 -10  -9    4.35    3.84
  -4  10   9    3.49    4.16
  -4  10   9    3.09    3.47
  -4  10   9    9.32    3.39
  -2 -10   9    6.32    4.57
  -2 -10   9    3.65    3.04
   2 -10  -9    3.17    4.18
   2 -10  -9   -0.72    4.36
  -2  10   9   -1.28    2.70
  -2  10   9    6.15    3.73
  -2  10   9    1.02    2.96
   2  10  -9   -0.75    3.66
   0 -10   9    9.08    3.39
   0 -10  -9    6.00    4.46
   0 -10  -9   14.30    3.22
   0 -10  -9    4.40    4.43
   0 -10   9    7.66    4.35
   0  10   9   16.43    3.69
   0  10   9    5.15    4.30
   0  10   9   12.07    2.93
   0  10  -9   10.04    3.92
   2 -10   9   -0.86    4.03
  -2 -10  -9   -2.29    3.93
  -2 -10  -9    3.22    3.06
  -2 -10  -9   -0.83    3.66
   2 -10   9   -1.12    3.52
  -2  10  -9    0.96    3.71
   2  10   9    1.45    2.96
   2  10   9   -7.18    3.70
   4 -10   9   -2.10    4.10
  -4 -10  -9    0.63    3.06
   4 -10   9   -1.84    4.44
  -4 -10  -9   -3.90    4.37
  -4 -10  -9   -2.04    3.76
   4  10   9    2.10    3.16
  -4  10  -9   -2.58    3.72
  -4  10  -9    4.37    4.40
   4  10   9   -0.23    2.91
  -6 -10  -9    6.76    4.93
  -6 -10  -9   -3.86    4.30
   6 -10   9   -6.12    5.10
  -6 -10  -9    5.79    4.53
  -6  10  -9    6.23    5.04
  -6  10  -9    2.11    4.10
   6  10   9    0.74    3.09
   6  10   9   -2.72    3.19
   5 -11  -9    7.89    5.29
   5 -11  -9    1.15    4.49
  -5  11   9    3.14    4.61
  -5  11   9   -3.06    4.38
  -5  11   9    5.26    3.63
   3 -11  -9   22.95    5.77
  -3 -11   9   10.53    4.06
   3 -11  -9    5.79    5.60
  -3  11   9   15.09    4.05
   3  11  -9   11.17    4.81
  -3  11   9   11.41    4.79
  -3  11   9   16.72    3.66
   1 -11  -9    2.49    4.33
  -1 -11   9    0.49    3.33
   1 -11  -9    2.99    4.61
  -1  11   9    0.23    2.91
   1  11  -9    2.97    3.73
  -1  11   9   -1.15    3.13
  -1  11   9   -6.00    3.91
  -1 -11  -9   -2.92    4.63
   1 -11   9   -1.92    4.61
   1 -11   9    1.71    4.59
  -1 -11  -9    9.53    5.01
  -1 -11  -9   -5.68    3.14
   1  11   9    1.83    2.89
   1  11   9   -0.72    2.45
   1  11   9    1.44    3.95
  -1  11  -9   -1.02    3.66
  -3 -11  -9    5.38    3.79
   3 -11   9    6.49    5.21
   3 -11   9    1.54    4.59
  -3 -11  -9    3.61    4.68
  -3 -11  -9    9.74    5.27
  -3  11  -9   10.73    4.52
   3  11   9    0.68    4.89
   3  11   9    8.72    3.20
 -12   0  10   24.81    5.64
  12   0 -10   34.15    5.71
 -12   0  10   26.16    6.04
 -12   0  10   29.83    5.92
  12   0 -10   28.37    6.27
  10   0 -10   55.53    6.84
  10   0 -10   49.88    6.79
 -10   0  10   46.59    6.20
 -10   0  10   42.81    6.13
  -8   0  10   32.04    4.61
   8   0 -10   37.62    4.56
   8   0 -10   37.62    5.78
  -8   0  10   30.19    4.88
  -8   0  10   27.60    4.08
   6   0 -10   80.69    6.41
   6   0 -10   85.46    6.07
  -6   0  10   66.23    6.08
  -6   0  10   81.03    6.40
  -4   0  10  160.76    9.10
   4   0 -10  162.32    8.67
  -4   0  10  147.37    8.81
   4   0 -10  151.96    9.18
   2   0 -10    0.01    1.96
  -2   0  10   -0.54    1.83
   2   0 -10   -0.97    2.03
  -2   0  10    4.57    2.03
   0   0  10  178.37    9.41
   0   0 -10  168.38    8.97
   0   0  10  175.76    9.62
   2   0  10  377.13   17.02
  -2   0 -10  353.91   16.85
   2   0  10  346.94   16.17
  -2   0 -10  359.40   16.25
   4   0  10   47.11    4.83
   4   0  10   41.73    4.20
  -4   0 -10   44.07    5.01
  -4   0 -10   39.62    4.40
  -6   0 -10   62.56    6.05
  -6   0 -10   64.50    5.95
   6   0  10   66.53    5.05
  -6   0 -10   59.61    5.44
   6   0  10   49.22    6.74
   8   0  10  112.39    8.78
  -8   0 -10  126.83    8.92
  -8   0 -10  135.86    8.35
  -8   0 -10   99.25    8.98
 -10   0 -10   16.26    4.87
 -10   0 -10   36.07    5.66
  10   0  10   16.53    4.54
 -12   0 -10   21.21    5.64
 -12   0 -10   24.36    6.27
  12   0  10   27.59    5.54
 -13  -1  10   46.40    6.95
 -13  -1  10   58.19    7.94
 -13  -1  10   50.91    6.97
  13  -1 -10   54.21    7.42
  13  -1 -10   54.53    8.04
 -13   1  10   55.31    7.30
  13   1 -10   61.68    8.51
 -13   1  10   52.91    7.02
 -13   1  10   57.52    8.12
 -11  -1  10   78.81    8.21
  11  -1 -10   87.77    8.24
  11  -1 -10   70.28    5.24
  11  -1 -10   57.14    7.44
 -11   1  10   74.56    7.67
  11   1 -10   82.90    8.38
  11   1 -10   72.56    8.54
 -11   1  10   81.82    8.16
 -11   1  10   79.97    8.67
  -9  -1  10   86.99    7.08
   9  -1 -10   81.31    6.77
   9  -1 -10   78.33    5.46
  -9  -1  10   89.40    8.16
   9  -1 -10   84.91    8.08
  -9   1  10   82.73    7.67
   9   1 -10   90.01    8.46
   9   1 -10   89.91    6.81
  -9   1  10   92.24    6.82
   7  -1 -10    7.62    2.29
  -7  -1  10    8.97    2.82
  -7  -1  10   10.09    3.91
   7  -1 -10    7.49    2.69
   7  -1 -10    9.05    4.08
   7   1 -10    6.62    3.00
  -7   1  10    8.73    2.61
  -7   1  10    7.37    2.66
   7   1 -10    7.41    2.63
   5  -1 -10  114.69    7.50
  -5  -1  10   93.20    6.79
   5  -1 -10  100.75    6.14
  -5  -1  10   99.45    6.94
   5  -1 -10  101.28    6.86
   5   1 -10   98.01    6.99
   5   1 -10  109.37    6.68
  -5   1  10   90.50    6.64
  -5   1  10   98.90    7.05
   3  -1 -10  318.87   15.93
  -3  -1  10  331.96   15.94
   3  -1 -10  333.18   15.56
  -3  -1  10  340.49   15.82
  -3   1  10  340.51   15.71
  -3   1  10  321.98   15.76
   3   1 -10  350.77   16.00
   3   1 -10  322.33   14.98
  -1  -1  10   38.86    4.43
   1  -1 -10   34.12    3.91
  -1  -1  10   39.77    4.25
   1   1 -10   36.69    3.78
  -1   1  10   42.89    4.22
  -1   1  10   39.87    4.49
  -1  -1 -10   10.03    2.90
  -1  -1 -10   11.71    2.52
   1  -1  10    6.72    2.32
   1  -1  10   10.31    2.65
  -1   1 -10    9.57    2.71
   1   1  10   11.44    2.82
  -1   1 -10   11.92    2.47
   1   1  10    8.34    2.51
   3  -1  10   30.13    3.59
  -3  -1 -10   26.70    2.24
  -3  -1 -10   24.01    2.32
   3  -1  10   20.85    3.57
  -3  -1 -10   20.81    3.58
  -3  -1 -10   17.96    3.14
  -3   1 -10   30.95    4.36
  -3   1 -10   27.51    3.48
   3   1  10   20.91    3.23
   3   1  10   27.58    3.42
  -5  -1 -10  167.87    9.85
   5  -1  10  166.59   10.05
  -5  -1 -10  164.23    9.71
  -5  -1 -10  175.67    9.66
   5  -1  10  168.36    9.04
  -5   1 -10  168.70   10.09
   5   1  10  184.95   10.04
  -5   1 -10  179.28    8.19
  -5   1 -10  172.24    9.28
   5   1  10  169.48    8.88
  -7  -1 -10   81.52    6.36
  -7  -1 -10   74.76    7.04
   7  -1  10   63.34    7.13
  -7  -1 -10   54.48    6.89
   7   1  10   63.81    6.85
  -7   1 -10   81.77    7.76
  -7   1 -10   78.29    6.15
  -7   1 -10   81.50    4.83
   7   1  10   83.04    5.42
   9  -1  10   -0.90    3.66
  -9  -1 -10   -0.59    3.95
  -9  -1 -10    4.47    4.17
  -9  -1 -10   -1.72    3.65
  -9   1 -10    3.77    2.55
  -9   1 -10   -2.92    3.52
   9   1  10    2.60    3.52
  -9   1 -10    0.02    3.45
  11  -1  10   23.60    5.18
 -11  -1 -10   19.05    5.00
  11   1  10   26.54    5.52
 -11   1 -10   34.46    6.31
 -11   1 -10   19.06    5.16
  12  -2 -10   24.91    5.60
  12  -2 -10   28.71    5.93
  12  -2 -10   43.21    4.43
 -12  -2  10   31.13    5.66
 -12   2  10   40.05    6.56
  12   2 -10   40.62    7.01
 -12   2  10   29.08    6.30
 -12   2  10   34.30    5.74
 -10  -2  10   12.52    3.84
  10  -2 -10   14.01    2.97
  10  -2 -10    2.33    4.20
  10  -2 -10   12.33    4.94
 -10  -2  10   10.62    4.14
  10   2 -10    9.90    3.92
 -10   2  10   14.89    4.51
 -10   2  10   10.57    4.48
  10   2 -10   16.41    3.83
 -10   2  10    7.59    4.28
   8  -2 -10  125.42    8.45
   8  -2 -10  121.10    9.60
  -8  -2  10  123.71    8.43
  -8  -2  10  126.46    9.10
   8  -2 -10  125.65    7.31
  -8   2  10  118.32    8.90
  -8   2  10  129.71    7.88
   8   2 -10  124.56    7.88
   8   2 -10  119.89   13.48
  -8   2  10  112.88   13.08
   6  -2 -10   97.39    7.32
  -6  -2  10   85.84    6.56
   6  -2 -10   85.21    5.80
  -6  -2  10   90.25    6.77
   6  -2 -10   95.63    6.71
   6   2 -10  100.59    6.89
  -6   2  10   86.90    6.67
  -6   2  10   77.41    6.44
  -6   2  10   83.86    5.93
   6   2 -10   78.66    5.92
  -4  -2  10   17.54    3.34
   4  -2 -10   26.37    3.77
  -4  -2  10   17.02    3.38
   4  -2 -10   21.05    3.16
   4  -2 -10   18.32    3.47
  -4   2  10   18.68    2.81
   4   2 -10   21.89    3.01
  -4   2  10   24.40    3.75
   4   2 -10   27.35    3.83
  -4   2  10   18.93    3.30
   2  -2 -10    2.64    2.53
  -2  -2  10   -0.96    1.93
   2  -2 -10   -2.07    1.89
  -2  -2  10    2.94    2.18
   2  -2 -10    1.95    1.93
   2   2 -10   -0.69    1.62
  -2   2  10    2.25    2.18
  -2   2  10    2.50    1.95
   2   2 -10    1.92    2.38
   0  -2 -10   55.58    4.73
   0  -2  10   61.77    5.10
   0  -2  10   55.95    4.81
   0   2  10   50.86    4.62
   0   2  10   53.86    4.80
   0   2 -10   52.71    4.10
  -2  -2 -10  176.35    9.79
   2  -2  10  177.48   10.09
  -2  -2 -10  192.51    9.93
   2  -2  10  181.35    9.73
  -2  -2 -10  186.37   10.12
  -2   2 -10  198.26    9.24
   2   2  10  188.18    9.58
  -2   2 -10  183.30   10.43
   2   2  10  178.27    9.87
  -4  -2 -10   57.03    6.04
   4  -2  10   68.78    5.91
   4  -2  10   69.12    5.35
  -4  -2 -10   66.90    5.55
  -4  -2 -10   66.44    5.74
  -4   2 -10   64.25    5.02
   4   2  10   63.23    5.09
  -4   2 -10   84.31    6.37
   4   2  10   71.12    5.49
  -4   2 -10   75.57    4.75
  -6  -2 -10    8.08    2.88
  -6  -2 -10   10.92    3.03
  -6  -2 -10   16.17    3.98
   6  -2  10    5.63    3.90
  -6   2 -10   16.54    2.73
  -6   2 -10   15.87    3.09
  -6   2 -10   10.52    3.76
   6   2  10   11.85    3.46
   6   2  10   13.94    2.75
  -8  -2 -10   76.83    7.72
  -8  -2 -10   84.40    7.94
   8  -2  10   77.53    7.48
  -8  -2 -10   68.10    7.38
   8   2  10   80.91    5.31
  -8   2 -10   66.88    7.68
   8   2  10   76.70    7.19
  -8   2 -10   79.31    7.29
  -8   2 -10   87.32    5.62
 -10  -2 -10   88.58    8.63
  10  -2  10  100.10    8.97
 -10  -2 -10   99.96    9.05
  10   2  10   93.83    8.33
 -10   2 -10  101.65    8.80
 -10   2 -10   89.87    9.13
 -10   2 -10   82.72    6.48
  13  -3 -10    5.10    4.79
  13  -3 -10    1.31    4.79
 -13  -3  10    8.54    9.77
 -13  -3  10   -2.39    4.22
  13  -3 -10    0.38    3.20
 -13   3  10    3.89    4.91
 -13   3  10   -3.71    4.30
  13   3 -10   -1.73    4.74
 -13   3  10    7.69    5.36
  11  -3 -10   25.81    3.94
  11  -3 -10   18.23    5.49
 -11  -3  10   22.87    6.24
 -11  -3  10   20.39    5.43
  11  -3 -10   19.61    5.31
 -11   3  10   26.05    5.51
  11   3 -10   33.36    6.38
 -11   3  10   22.61    4.91
 -11   3  10   22.46    5.73
  -9  -3  10   87.08    7.34
   9  -3 -10   95.33    6.62
   9  -3 -10   96.90    8.94
   9  -3 -10   76.75    8.43
  -9  -3  10  101.67    8.43
  -9   3  10   81.10    8.22
  -9   3  10   80.38    7.77
   9   3 -10  114.74    7.19
   9   3 -10   86.83    8.66
  -9   3  10   95.45   10.15
  -7  -3  10   16.15    4.11
   7  -3 -10    8.88    2.86
  -7  -3  10    3.35    3.09
   7  -3 -10   13.85    4.35
   7  -3 -10   12.03    3.36
  -7   3  10    9.40    3.41
  -7   3  10    7.27    2.67
  -7   3  10    7.92    3.54
   7   3 -10    8.74    2.86
   7   3 -10   16.32    3.35
   5  -3 -10  145.49    9.25
   5  -3 -10  150.51    8.24
  -5  -3  10  152.88    9.02
   5  -3 -10  136.14    8.67
  -5  -3  10  134.03    8.67
   5   3 -10  147.52    8.68
  -5   3  10  130.63    8.41
  -5   3  10  133.23    7.77
   5   3 -10  145.67    7.73
  -5   3  10  146.03    8.76
   3  -3 -10   21.48    3.64
  -3  -3  10   17.39    3.78
  -3  -3  10   23.40    3.98
   3  -3 -10   27.26    3.82
   3  -3 -10   24.43    3.65
  -3   3  10   21.46    3.29
   3   3 -10   20.00    2.74
  -3   3  10   29.57    3.43
  -3   3  10   20.36    3.29
   3   3 -10   23.39    3.53
  -1  -3  10   14.09    2.82
  -1  -3  10   10.32    2.74
   1  -3 -10    9.90    2.61
   1  -3 -10    9.83    2.40
   1  -3 -10   11.95    2.75
   1   3 -10    9.84    1.98
  -1   3  10    9.88    2.53
  -1   3  10    6.95    2.40
  -1  -3 -10   23.55    3.84
   1  -3  10   19.40    3.29
  -1  -3 -10   15.46    3.21
   1  -3  10   19.02    3.50
  -1  -3 -10   17.52    3.06
   1   3  10   14.49    2.67
  -1   3 -10   17.55    2.42
  -1   3 -10    8.85    2.98
   1   3  10   15.48    2.82
  -3  -3 -10   27.07    3.98
   3  -3  10   22.96    3.68
  -3  -3 -10   17.50    3.16
   3  -3  10   21.80    3.24
  -3  -3 -10   14.39    3.00
  -3   3 -10   19.36    3.75
   3   3  10   21.91    3.44
   3   3  10   25.84    3.41
  -3   3 -10   21.05    2.92
  -5  -3 -10   -3.47    2.30
   5  -3  10    5.43    2.98
  -5  -3 -10    3.93    2.39
  -5  -3 -10    3.81    3.10
   5   3  10    0.05    3.63
  -5   3 -10    3.10    2.04
   5   3  10    0.50    2.13
  -5   3 -10    1.57    2.90
   7  -3  10   62.54    7.45
  -7  -3 -10   63.76    7.28
  -7  -3 -10   56.48    6.97
  -7  -3 -10   70.88    7.23
  -7   3 -10   62.53    6.71
   7   3  10   68.64    6.52
   7   3  10   72.68    5.14
  -7   3 -10   72.76    5.59
  -9  -3 -10   13.05    4.48
  -9  -3 -10   14.16    4.86
   9  -3  10   11.90    5.07
  -9   3 -10   14.39    3.50
  -9   3 -10   11.10    4.23
  -9   3 -10   12.27    4.68
   9   3  10    6.59    3.75
 -11  -3 -10  100.39    9.28
 -11  -3 -10   85.37    9.56
  11  -3  10  105.21    9.88
 -11   3 -10   79.96    9.71
  11   3  10  104.15    9.04
 -11   3 -10   96.30   11.71
 -11   3 -10  112.11    7.74
  12  -4 -10    4.41    4.57
 -12  -4  10   10.90    4.88
  12  -4 -10    1.82    3.18
  12  -4 -10   -0.27    4.61
 -12  -4  10   -2.40    4.66
 -12   4  10    2.70    4.59
  12   4 -10   -1.07    4.80
 -12   4  10    1.56    4.08
 -12   4  10   -0.16    4.36
  10  -4 -10   -0.87    4.28
 -10  -4  10    4.80    3.81
 -10  -4  10    2.47    3.91
  10  -4 -10    3.21    2.99
  10  -4 -10    6.05    4.35
  10   4 -10   11.16    3.44
 -10   4  10    8.43    3.62
 -10   4  10    6.60    4.15
 -10   4  10   10.89    4.86
  10   4 -10   -0.65    3.69
   8  -4 -10    2.26    4.03
   8  -4 -10    5.84    3.75
  -8  -4  10    4.84    3.49
   8  -4 -10    6.01    2.75
  -8  -4  10    4.69    4.05
  -8   4  10    2.35    2.62
  -8   4  10    0.25    3.13
  -8   4  10    8.92    3.87
   8   4 -10    2.33    2.59
   6  -4 -10    5.15    1.56
   6  -4 -10    3.35    3.08
  -6  -4  10   -0.93    3.22
  -6  -4  10    7.64    3.14
   6  -4 -10    1.92    3.46
   6  -4 -10    6.49    2.72
  -6   4  10    7.04    3.20
  -6   4  10    0.63    2.32
   6   4 -10    6.05    2.95
  -6   4  10    9.94    3.67
   6   4 -10    6.19    2.16
  -4  -4  10    0.32    2.49
  -4  -4  10    0.09    2.68
   4  -4 -10    1.74    1.91
   4  -4 -10   -1.86    2.42
   4  -4 -10    1.80    2.16
   4  -4 -10    1.86    2.33
  -4   4  10   -0.82    1.83
  -4   4  10    4.46    2.22
   4   4 -10    1.36    2.29
   4   4 -10    0.76    1.82
  -4   4  10    7.32    2.67
   2  -4 -10   26.87    4.00
   2  -4 -10   26.37    2.95
   2  -4 -10   28.65    4.10
  -2  -4  10   23.45    3.91
  -2  -4  10   25.00    3.77
  -2   4  10   23.47    3.59
   2   4 -10   22.62    2.72
  -2   4  10   24.15    3.75
   2   4 -10   21.63    3.46
  -2   4  10   26.05    2.72
   0  -4 -10   20.00    3.46
   0  -4 -10   21.37    3.02
   0  -4 -10   19.73    3.72
   0  -4 -10   20.17    3.48
   0  -4  10   20.80    3.30
   0  -4  10   20.80    3.84
   0   4 -10   19.81    2.50
   0   4  10   22.34    3.36
   0   4  10   20.83    3.45
   0   4 -10   16.65    3.20
  -2  -4 -10  107.56    7.46
  -2  -4 -10  110.55    7.31
   2  -4  10  111.33    6.98
  -2  -4 -10  108.46    6.91
   2  -4  10   98.47    7.06
  -2  -4 -10  108.67    7.48
  -2   4 -10  105.72    6.56
   2   4  10  108.36    6.81
   2   4  10  114.53    6.92
  -2   4 -10  113.38    7.77
  -4  -4 -10    3.28    5.45
  -4  -4 -10    0.73    2.19
  -4  -4 -10    0.55    2.33
   4  -4  10    0.85    2.49
   4   4  10   -0.10    2.06
   4   4  10   -0.93    1.90
  -4   4 -10    0.24    2.53
  -6  -4 -10   11.50    4.17
   6  -4  10   11.68    4.15
  -6  -4 -10    7.41    2.94
  -6   4 -10    8.62    2.67
   6   4  10    6.67    2.48
   6   4  10    6.62    3.39
  -6   4 -10   10.20    3.49
   8  -4  10   11.53    4.63
  -8  -4 -10   17.46    4.60
  -8  -4 -10   15.27    4.55
   8   4  10   14.88    3.79
  -8   4 -10   18.27    3.76
   8   4  10   22.66    2.98
  -8   4 -10   10.98    4.05
  10  -4  10   -4.48    4.16
 -10  -4 -10    1.35    4.58
 -10  -4 -10   -0.90    4.71
 -10   4 -10    6.93    3.58
 -10   4 -10    4.73    5.18
 -10   4 -10   -2.82    5.59
  10   4  10   -2.82    3.75
  11  -5 -10    3.28    4.91
 -11  -5  10   -0.51    4.47
 -11  -5  10    1.11    4.34
  11  -5 -10   -3.62    3.22
  11  -5 -10    5.76    5.30
 -11   5  10   -2.68    3.73
 -11   5  10   -1.64    4.17
 -11   5  10    7.66    4.34
  11   5 -10   -4.43    3.91
   9  -5 -10    2.48    2.99
  -9  -5  10    5.75    3.94
   9  -5 -10   11.95    4.59
  -9  -5  10   -2.06    4.11
   9  -5 -10    4.45    4.28
  -9   5  10    0.37    3.68
   9   5 -10    7.98    4.56
  -9   5  10   -2.74    3.49
   9   5 -10    0.77    2.93
  -9   5  10    5.28    3.88
  -7  -5  10    4.81    3.38
   7  -5 -10    8.78    4.35
   7  -5 -10   11.03    3.01
  -7  -5  10   10.05    4.31
   7  -5 -10   11.67    4.62
  -7   5  10    9.97    3.61
  -7   5  10   12.71    2.97
  -7   5  10   11.48    4.06
   7   5 -10   15.12    2.90
   7   5 -10   10.60    3.31
  -5  -5  10   -2.50    3.12
   5  -5 -10    3.14    3.78
  -5  -5  10   -2.71    2.66
   5  -5 -10    4.28    2.43
  -5   5  10   -4.99    2.06
   5   5 -10    1.72    2.56
  -5   5  10   -1.72    2.97
   5   5 -10   -2.96    1.88
  -5   5  10    1.90    3.23
   3  -5 -10   24.21    4.07
  -3  -5  10   19.40    3.89
   3  -5 -10   22.05    3.79
  -3  -5  10   21.71    5.66
   3  -5 -10   17.92    2.51
  -3   5  10   23.16    3.49
  -3   5  10   20.02    2.85
  -3   5  10   16.81    3.61
   3   5 -10   17.84    3.31
   3   5 -10   19.96    2.34
   1  -5 -10    0.29    1.88
   1  -5 -10    4.92    2.39
  -1  -5  10   -3.40    2.55
   1  -5 -10    1.04    2.21
  -1  -5  10    4.01    2.36
   1   5 -10    2.93    1.20
  -1   5  10    1.91    1.97
  -1   5  10    4.89    2.50
  -1   5  10    3.47    1.58
   1  -5  10    3.45    2.00
  -1  -5 -10    6.28    2.46
   1  -5  10    3.47    2.71
  -1  -5 -10    2.68    2.32
  -1  -5 -10    4.53    2.26
  -1  -5 -10    0.92    4.03
   1   5  10    8.44    2.43
  -1   5 -10    2.82    2.34
   1   5  10    1.99    2.06
  -3  -5 -10    2.84    3.16
  -3  -5 -10    3.35    6.41
   3  -5  10    1.46    2.40
  -3  -5 -10    2.34    3.47
  -3  -5 -10    7.91    2.71
   3   5  10    3.17    2.19
   3   5  10    4.02    2.29
  -3   5 -10    0.91    2.35
  -5  -5 -10   -2.78    3.41
   5  -5  10   -1.24    2.72
  -5  -5 -10   -1.34    2.44
   5   5  10    0.19    2.17
  -5   5 -10    6.85    2.63
   5   5  10   -0.13    2.76
  -5   5 -10   -0.21    3.34
  -7  -5 -10   -0.27    4.02
  -7  -5 -10   -0.24    3.74
   7  -5  10   -3.10    3.92
   7   5  10   -1.40    2.34
  -7   5 -10    1.49    4.35
   7   5  10    0.02    2.84
  -7   5 -10    2.35    3.00
   9  -5  10   -0.04    4.15
  -9  -5 -10   -2.43    3.90
  -9  -5 -10    1.12    4.35
  -9   5 -10    0.24    3.11
   9   5  10    2.60    3.29
  -9   5 -10    1.46    4.51
  10  -6 -10    3.73    4.71
 -10  -6  10   -2.14    4.14
  10  -6 -10    1.70    4.91
 -10  -6  10    1.67    4.47
  10  -6 -10    0.44    4.94
  10   6 -10   -5.74    3.61
  10   6 -10    3.08    3.38
 -10   6  10    3.84    4.03
 -10   6  10    3.53    4.17
 -10   6  10   -0.16    3.71
   8  -6 -10   23.79    5.55
   8  -6 -10   23.01    4.04
   8  -6 -10   14.72    5.09
  -8  -6  10   20.04    4.84
  -8  -6  10   18.43    5.07
  -8   6  10   15.31    4.87
  -8   6  10   18.41    4.20
  -8   6  10   15.41    4.50
   8   6 -10   26.09    3.62
  -6  -6  10   19.47    4.45
  -6  -6  10   21.87    4.58
   6  -6 -10   18.98    4.90
   6  -6 -10   21.95    3.82
   6  -6 -10   17.45    4.67
  -6   6  10   27.63    4.54
  -6   6  10   17.44    4.35
  -6   6  10   23.18    3.64
   6   6 -10   15.45    3.63
   6   6 -10   30.73    3.49
   4  -6 -10   12.42    3.51
   4  -6 -10    9.49    4.29
  -4  -6  10    8.60    3.98
   4  -6 -10    4.02    4.02
  -4  -6  10    4.32    3.36
  -4   6  10    4.29    2.35
   4   6 -10    8.16    1.44
  -4   6  10    5.59    3.52
   4   6 -10    4.98    3.00
  -4   6  10    0.79    3.32
  -2  -6  10    2.62    3.13
   2  -6 -10    8.94    4.00
  -2  -6  10    8.78    3.47
   2  -6 -10    9.18    2.21
   2  -6 -10    8.28    2.84
  -2   6  10   10.74    2.40
  -2   6  10    4.14    2.45
  -2   6  10    8.09    3.69
   0  -6 -10    1.92    3.82
   0  -6 -10    2.11    3.12
   0  -6  10    0.66    2.79
   0  -6 -10   -1.11    3.83
   0  -6  10    2.03    3.72
   0  -6 -10   -0.89    2.09
   0   6  10    0.16    2.46
   0   6  10    5.85    2.71
   0   6  10    3.27    1.48
  -2  -6 -10    1.58    3.75
  -2  -6 -10    2.25    2.46
  -2  -6 -10    0.96    4.07
   2  -6  10    7.23    2.89
   2   6  10    9.27    3.27
   2   6  10    1.32    2.37
  -2   6 -10   -0.43    5.32
  -4  -6 -10    9.89    2.90
   4  -6  10    6.55    3.38
  -4  -6 -10    6.76    3.99
  -4  -6 -10   13.28    4.54
  -4   6 -10    9.07    4.13
   4   6  10    7.78    2.65
   4   6  10    1.62    2.94
  -6  -6 -10    7.08    4.61
   6  -6  10    1.17    4.14
  -6  -6 -10    8.00    4.39
  -6   6 -10   12.73    4.95
  -6   6 -10    8.97    3.28
   6   6  10    7.53    2.74
   6   6  10    9.82    3.39
   8  -6  10    7.48    4.99
  -8  -6 -10    5.46    4.16
  -8  -6 -10    8.88    4.60
   8   6  10    5.64    3.85
  -8   6 -10    6.01    3.52
  -8   6 -10    7.02    5.14
   8   6  10    3.60    3.47
 -10  -6 -10   30.55    6.56
 -10  -6 -10   28.87    6.27
 -10   6 -10   30.59    6.83
 -10   6 -10   10.06    8.86
  -9  -7  10   14.23    5.39
  -9  -7  10    8.33    4.50
   9  -7 -10    9.72    4.47
   9  -7 -10    1.49    4.70
   9  -7 -10    7.94    4.74
  -9   7  10    6.08    4.35
   9   7 -10   16.36    3.54
  -9   7  10    7.07    4.34
   9   7 -10    1.74    4.44
  -9   7  10    8.37    4.27
  -7  -7  10    0.24    3.74
  -7  -7  10   -3.84    3.92
   7  -7 -10    1.66    4.49
   7  -7 -10   -0.50    4.36
   7  -7 -10    3.28    4.42
   7   7 -10   -1.16    2.76
  -7   7  10   -0.88    2.58
   7   7 -10    1.10    2.09
  -7   7  10   -2.17    3.89
  -7   7  10    1.55    3.54
  -5  -7  10    4.03    3.66
  -5  -7  10    1.19    3.62
   5  -7 -10    1.53    4.08
   5  -7 -10    2.33    3.73
   5  -7 -10    0.18    4.10
  -5   7  10    1.81    3.37
   5   7 -10   -6.29    2.70
  -5   7  10    4.71    3.75
  -5   7  10    3.19    2.45
  -3  -7  10    4.97    2.49
  -3  -7  10    6.42    3.66
  -3  -7  10    7.81    3.30
   3  -7 -10    2.04    3.62
   3  -7 -10    2.15    3.18
   3   7 -10   14.02    2.96
  -3   7  10    4.60    2.45
  -3   7  10    2.90    3.19
  -3   7  10    6.63    4.01
  -1  -7  10  125.80    9.02
   1  -7 -10  135.07    7.09
   1  -7 -10  123.47    9.37
   1  -7 -10  127.09    9.92
   1   7 -10  124.81    9.33
  -1   7  10  130.88    6.75
  -1   7  10  132.72    8.40
  -1   7  10  132.12    8.63
  -1  -7 -10    3.21    3.52
  -1  -7 -10   11.66    4.42
   1  -7  10    8.76    3.47
  -1  -7 -10    8.37    2.76
   1   7  10   13.17    3.19
  -1   7 -10   14.87    4.44
   1   7  10    8.23    3.18
   3  -7  10   76.48    7.25
  -3  -7 -10   64.64    7.42
  -3  -7 -10   58.33    5.77
  -3  -7 -10   56.39    7.29
   3   7  10   65.59    6.08
   3   7  10   85.66    6.01
  -3   7 -10   57.37    7.15
  -5  -7 -10   67.12    6.25
  -5  -7 -10   51.88    6.94
   5   7  10   49.37    5.70
  -5   7 -10   38.80    6.01
  -5   7 -10   47.22    5.50
   5   7  10   44.04    5.08
  -7  -7 -10    4.21    4.33
  -7  -7 -10    1.29    4.53
   7  -7  10    7.68    4.73
  -7   7 -10    7.61    5.71
   7   7  10    6.89    2.99
  -7   7 -10    1.56    4.64
   7   7  10    5.74    3.23
   9  -7  10    3.27    5.37
  -9  -7 -10    4.00    4.83
  -9  -7 -10   -1.94    4.91
   9   7  10    5.06    3.54
  -9   7 -10   -0.19    4.96
  -9   7 -10   -2.26    4.60
  -8  -8  10   27.57    5.41
   8  -8 -10   22.64    5.63
  -8  -8  10   15.00    5.47
   8  -8 -10   23.31    5.57
   8  -8 -10    8.77    4.90
  -8   8  10   26.05    5.42
  -8   8  10   28.10    5.54
  -8   8  10   14.86    4.58
   6  -8 -10   71.10    8.28
   6  -8 -10   97.92    9.22
  -6  -8  10   96.50    8.75
  -6  -8  10   86.66    8.48
   6  -8 -10   88.88    8.93
   6   8 -10   98.59    7.31
  -6   8  10   77.02    7.82
  -6   8  10   91.05    7.02
  -6   8  10   90.64    9.09
   4  -8 -10   13.21    4.52
   4  -8 -10   12.86    4.83
  -4  -8  10   22.72    4.77
  -4  -8  10   23.42    3.22
  -4   8  10   23.37    3.57
   4   8 -10   18.72    3.66
  -4   8  10   14.81    4.27
  -4   8  10   13.93    4.67
  -2  -8  10   27.92    3.72
  -2  -8  10   30.11    4.84
   2  -8 -10   16.47    4.79
   2  -8 -10   19.69    4.98
   2  -8 -10   25.77    2.98
  -2   8  10   16.72    4.46
  -2   8  10   28.79    3.26
   2   8 -10   30.30    5.36
  -2   8  10   25.16    4.35
   0  -8 -10   53.41    5.11
   0  -8 -10   47.79    6.51
   0  -8  10   56.53    6.95
   0  -8 -10   51.72    7.01
   0   8  10   69.25    4.20
   0   8  10   52.58    6.24
   0   8  10   57.34    7.61
   0   8 -10   58.31    7.10
   2  -8  10   34.89    6.20
  -2  -8 -10   39.09    4.94
  -2  -8 -10   32.21    6.00
  -2  -8 -10   41.06    6.54
   2   8  10   45.78    5.19
   2   8  10   42.36    5.04
  -2   8 -10   44.47    6.26
   4  -8  10    5.84    4.06
  -4  -8 -10    5.89    4.13
  -4  -8 -10    2.11    3.06
  -4  -8 -10    6.14    4.48
   4   8  10    6.85    3.08
  -4   8 -10    4.15    3.83
   4   8  10    7.54    3.32
  -6  -8 -10    2.71    4.48
   6  -8  10    1.72    5.18
  -6  -8 -10    7.93    4.73
  -6   8 -10   12.99    4.81
   6   8  10   10.23    3.26
   6   8  10    7.90    3.17
  -6   8 -10    6.47    4.61
  -8  -8 -10   25.38    5.64
  -8   8 -10   36.40    6.22
  -8   8 -10   23.69    6.12
   7  -9 -10    0.17    4.31
   7  -9 -10   -6.52    4.28
   7  -9 -10   -0.24    4.69
  -7   9  10    9.17    4.79
   7   9 -10   -0.35    3.39
  -7   9  10    2.54    4.39
  -7   9  10   -0.62    3.91
   5  -9 -10   20.76    5.25
   5  -9 -10   27.87    5.53
  -5  -9  10   26.53    5.94
  -5   9  10   36.26    4.52
  -5   9  10   23.94    4.95
  -5   9  10   25.14    5.29
   5   9 -10   35.27    4.67
   3  -9 -10   98.58    9.19
   3  -9 -10   90.44    9.13
  -3  -9  10   89.52    8.79
  -3  -9  10   95.17    6.67
  -3   9  10   89.95    7.89
   3   9 -10   95.69    8.46
  -3   9  10  106.57    6.93
  -3   9  10   92.20    8.90
   1  -9 -10   47.75    6.95
   1  -9 -10   65.57    8.35
   1  -9 -10   61.42    5.26
  -1  -9  10   61.28    6.09
  -1  -9  10   66.27    7.51
  -1   9  10   55.98    6.22
  -1   9  10   62.53    5.20
  -1   9  10   60.25    7.04
   1   9 -10   57.40    7.04
  -1  -9 -10   -2.93    4.01
  -1  -9 -10    1.39    4.25
  -1  -9 -10   -1.01    2.91
   1  -9  10   -1.83    4.18
  -1   9 -10    4.60    3.90
   1   9  10   -0.02    2.84
   1   9  10    2.71    4.13
  -3  -9 -10   11.17    3.56
   3  -9  10   16.37    4.66
  -3  -9 -10   15.43    5.03
  -3  -9 -10   12.28    4.90
  -3   9 -10   16.02    4.76
   3   9  10   13.77    3.39
   3   9  10   23.01    3.95
  -5  -9 -10  114.13   10.69
  -5  -9 -10  109.67   10.10
   5  -9  10   85.76   11.24
  -5  -9 -10  114.85    9.76
   5   9  10  136.12    7.97
   5   9  10  102.80    7.65
  -5   9 -10  108.25   10.20
  -5   9 -10  119.95   10.40
  -6  10  10  203.00   13.58
  -4 -10  10   29.05    8.42
   4 -10 -10   20.19    5.72
   4 -10 -10   14.72    5.17
  -4  10  10   20.55    3.92
  -4  10  10   22.47    5.73
  -4  10  10   14.31    4.73
   4  10 -10   20.86    5.04
  -2 -10  10   90.28    9.39
   2 -10 -10   83.22    9.47
  -2 -10  10   78.77    6.92
   2 -10 -10   80.62    9.29
  -2  10  10   78.64    8.54
  -2  10  10   76.26    7.18
   2  10 -10   73.70    8.38
  -2  10  10   75.16    6.43
   0 -10  10   46.30    6.45
   0 -10 -10   59.17    5.65
   0 -10 -10   38.43    7.00
   0 -10  10   52.09    6.45
   0  10  10   51.30    6.25
   0  10  10   43.29    6.58
   0  10 -10   39.73    6.34
   2 -10  10   23.81    5.96
   2 -10  10   32.62    6.02
  -2 -10 -10   31.27    6.46
  -2 -10 -10   37.44    4.80
  -2 -10 -10   33.65    6.10
   2  10  10   31.92    6.09
  -2  10 -10   26.29    5.66
   2  10  10   26.62    4.47
   4 -10  10   55.06    7.11
  -4 -10 -10   53.77    7.96
  -4 -10 -10   40.88    6.95
   4  10  10   42.62    5.13
  -4  10 -10   51.65    7.15
  -4  10 -10   42.56    6.61
   4  10  10   51.65    5.74
 -12   0  11    7.47    5.47
  12   0 -11   -3.16    4.29
  12   0 -11   -2.40    4.58
 -12   0  11    1.22    4.44
 -12   0  11   -1.71    4.51
 -10   0  11    5.44    4.55
 -10   0  11   -4.18    3.90
  10   0 -11    0.33    4.23
  10   0 -11    9.79    4.58
   8   0 -11    1.19    3.81
  -8   0  11    4.05    3.46
  -8   0  11   -5.79    3.87
   8   0 -11    0.30    2.70
  -6   0  11   -0.01    3.54
  -6   0  11    0.71    2.93
   6   0 -11    1.18    2.52
   6   0 -11    3.85    4.06
   4   0 -11   -4.37    2.42
  -4   0  11   -2.38    2.44
  -4   0  11   -3.86    2.24
   4   0 -11   -0.95    2.30
   2   0 -11   -0.48    1.99
  -2   0  11    0.80    2.20
  -2   0  11   -0.69    2.17
   0   0 -11    2.26    2.74
   0   0 -11    0.12    1.93
   0   0  11   -3.61    1.93
   0   0  11   -2.44    1.89
   2   0  11   -0.33    2.15
  -2   0 -11   -0.01    2.78
   2   0  11   -3.31    1.95
  -2   0 -11   -0.65    2.28
  -4   0 -11    4.84    2.35
  -4   0 -11   -3.83    4.56
   4   0  11   -3.29    2.63
   4   0  11   -1.84    2.27
  -6   0 -11   -3.70    3.36
   6   0  11    4.96    2.63
  -6   0 -11   -1.35    3.45
   6   0  11    0.93    2.97
  -6   0 -11   -2.95    2.55
   8   0  11    0.26    3.50
  -8   0 -11    0.82    4.32
  -8   0 -11    2.03    4.08
 -10   0 -11   -4.00    5.01
  10   0  11   -4.35    3.86
 -10   0 -11   -6.10    3.92
  11  -1 -11   18.34    5.28
 -11  -1  11   22.01    5.44
 -11  -1  11   22.06    5.74
  11  -1 -11   15.35    6.02
  11   1 -11   23.42    5.59
 -11   1  11   18.51    5.10
 -11   1  11   18.28    5.28
 -11   1  11   23.51    6.15
  11   1 -11    7.75    5.38
   9  -1 -11   19.59    5.33
   9  -1 -11   24.36    3.48
  -9  -1  11   12.85    4.84
   9  -1 -11   18.99    5.58
  -9  -1  11   18.52    5.26
   9   1 -11   20.81    5.64
  -9   1  11   16.43    4.93
  -9   1  11   18.68    4.61
  -9   1  11   12.97    4.63
   9   1 -11   26.76    4.54
  -7  -1  11   -4.18    2.63
   7  -1 -11   -3.37    2.43
  -7  -1  11   -1.37    3.39
   7  -1 -11   -0.73    3.92
   7   1 -11    0.66    3.80
  -7   1  11   -0.91    3.54
  -7   1  11   -2.57    3.19
   7   1 -11    4.05    2.81
   5  -1 -11   19.73    3.39
   5  -1 -11   20.13    4.74
  -5  -1  11   11.46    3.85
  -5  -1  11   10.00    3.03
  -5   1  11   18.55    4.32
  -5   1  11   21.29    6.00
   5   1 -11   14.00    4.09
   5   1 -11   21.92    3.60
   3  -1 -11   64.58    5.41
   3  -1 -11   57.29    6.49
  -3  -1  11   70.37    5.94
  -3  -1  11   73.56    5.55
   3   1 -11   60.91    5.08
  -3   1  11   64.74    5.27
  -3   1  11   61.62    5.83
   3   1 -11   53.20    5.38
  -1  -1  11   -0.04    2.24
   1  -1 -11    5.37    2.58
  -1  -1  11    4.61    2.45
  -1   1  11    7.57    2.75
  -1   1  11    3.89    2.29
   1   1 -11   11.13    2.52
   1  -1  11   67.21    5.57
  -1  -1 -11   76.41    6.53
   1  -1  11   70.99    6.01
  -1  -1 -11   63.93    5.47
   1   1  11   68.63    5.89
   1   1  11   70.67    5.46
  -1   1 -11   72.29    6.52
  -1   1 -11   64.98    5.20
  -3  -1 -11   -0.36    2.28
  -3  -1 -11   -0.96    2.40
  -3  -1 -11    0.66    2.88
   3  -1  11    3.89    2.45
   3   1  11   -3.63    2.51
   3   1  11    2.25    2.22
  -3   1 -11   -1.58    2.95
  -3   1 -11    0.19    2.22
  -5  -1 -11    1.80    2.61
  -5  -1 -11    3.57    3.60
   5  -1  11   -2.80    2.36
   5  -1  11    2.32    3.22
   5   1  11   -0.57    2.29
  -5   1 -11    1.97    2.20
   5   1  11   -1.44    3.00
  -5   1 -11   -3.93    2.44
  -5   1 -11    5.05    3.30
   7  -1  11    8.10    3.69
  -7  -1 -11   10.91    4.57
  -7  -1 -11    6.21    4.04
  -7  -1 -11   11.55    5.53
  -7   1 -11   10.22    3.98
   7   1  11   12.24    4.13
   7   1  11   12.78    3.15
  -7   1 -11    8.46    3.97
  -7   1 -11   14.63    3.42
  -9  -1 -11    0.46    3.80
  -9  -1 -11   -5.54    3.86
   9  -1  11    1.68    3.86
  -9  -1 -11   -2.68    4.85
   9   1  11    4.38    3.65
  -9   1 -11   -0.80    3.96
  -9   1 -11    3.93    4.49
  12  -2 -11   -0.59    4.58
  12  -2 -11   -0.59    4.36
 -12  -2  11    5.23    5.53
 -12  -2  11    3.66    4.48
 -12   2  11    3.55    5.31
 -12   2  11   -4.60    4.63
  12   2 -11    2.33    5.09
 -12   2  11    5.79    4.18
  12   2 -11   -0.78    4.62
  10  -2 -11   19.27    5.25
 -10  -2  11   23.25    5.65
  10  -2 -11   18.31    5.56
  10  -2 -11   20.17    3.67
 -10  -2  11   19.02    5.56
 -10   2  11   18.22    4.31
  10   2 -11   23.16    5.46
  10   2 -11   26.82    4.63
 -10   2  11   21.40    5.00
 -10   2  11   15.92    4.88
   8  -2 -11   72.35    7.77
   8  -2 -11   67.05    7.83
  -8  -2  11   72.16    7.02
   8  -2 -11   65.06    5.66
  -8  -2  11   88.22    7.79
   8   2 -11   71.93    6.56
  -8   2  11   81.06    7.77
   8   2 -11   68.01    7.63
  -8   2  11   77.60    6.23
  -8   2  11   70.89    7.71
   6  -2 -11   30.67    4.53
   6  -2 -11   33.05    5.43
   6  -2 -11   29.43    3.91
  -6  -2  11   21.11    4.57
  -6  -2  11   29.74    4.60
  -6   2  11   32.79    4.09
  -6   2  11   21.21    4.63
   6   2 -11   29.88    5.83
  -6   2  11   24.92    4.82
   6   2 -11   30.41    4.11
   4  -2 -11   -2.06    3.28
   4  -2 -11    3.25    2.60
  -4  -2  11    5.27    2.60
  -4  -2  11   -0.93    3.46
   4  -2 -11    1.00    2.32
   4   2 -11    2.73    2.78
  -4   2  11    1.25    4.24
   4   2 -11    3.19    2.42
   2  -2 -11  145.24    8.52
  -2  -2  11  137.46    8.57
  -2  -2  11  137.20    8.50
  -2   2  11  139.44    8.90
  -2   2  11  139.67    8.29
   2   2 -11  140.00    7.66
   0  -2  11   85.16    6.64
   0  -2  11   85.48    6.30
   0  -2 -11   82.24    6.93
   0  -2 -11   81.18    6.22
   0   2  11   88.22    6.64
   0   2  11   94.41    6.32
   0   2 -11   88.41    5.69
   0   2 -11   92.52    7.11
  -2  -2 -11    0.13    2.33
   2  -2  11    2.76    2.46
  -2  -2 -11    3.79    3.35
  -2  -2 -11    3.03    2.07
   2  -2  11    1.32    2.20
  -2   2 -11    2.46    2.14
   2   2  11   -1.18    2.19
  -2   2 -11    7.31    2.83
   2   2  11    2.69    3.53
   4  -2  11   14.06    3.20
  -4  -2 -11   10.82    3.19
  -4  -2 -11   11.00    3.77
  -4  -2 -11   10.56    3.15
   4  -2  11    8.93    3.66
  -4   2 -11   18.57    2.65
  -4   2 -11    8.18    2.90
   4   2  11    8.19    3.69
  -4   2 -11    7.54    3.26
   4   2  11   10.86    2.68
  -6  -2 -11    2.17    3.72
  -6  -2 -11   -1.45    3.49
   6  -2  11    4.42    3.38
  -6   2 -11    6.62    2.49
   6   2  11    2.08    2.51
  -6   2 -11    4.26    2.85
   6   2  11    7.25    3.47
  -6   2 -11    8.64    3.68
  -8  -2 -11   65.11    7.90
  -8  -2 -11   70.07    8.64
   8  -2  11   60.89    7.59
  -8  -2 -11   78.61    7.98
   8   2  11   69.02    7.71
   8   2  11   68.15    5.60
  -8   2 -11   80.52    8.02
  -8   2 -11   70.97    5.66
  -8   2 -11   63.38    7.57
  10  -2  11    8.04    5.10
 -10  -2 -11   11.46    4.92
 -10  -2 -11   16.43    5.06
 -10   2 -11   10.32    5.12
 -10   2 -11   17.48    5.77
  10   2  11   10.76    4.78
  11  -3 -11   62.15    8.24
  11  -3 -11   50.93    6.07
  11  -3 -11   61.29    8.25
 -11  -3  11   61.13    8.15
 -11  -3  11   49.09    6.82
 -11   3  11   66.61    7.75
 -11   3  11   36.70    6.24
  11   3 -11   54.97    7.38
 -11   3  11   51.29    7.56
  -9  -3  11    2.47    4.12
   9  -3 -11  -10.33    3.44
   9  -3 -11   -1.47    3.85
  -9  -3  11   -0.20    3.57
   9  -3 -11   -1.23    2.72
  -9   3  11    4.25    3.87
  -9   3  11    1.69    3.75
  -9   3  11    3.84    4.26
   9   3 -11   -3.13    3.59
   9   3 -11   -1.01    3.12
  -7  -3  11   29.64    4.71
   7  -3 -11   43.96    5.07
  -7  -3  11   35.59    5.27
   7  -3 -11   43.12    6.12
   7  -3 -11   27.94    5.64
  -7   3  11   33.72    4.16
  -7   3  11   34.97    5.41
   7   3 -11   38.01    6.14
  -7   3  11   35.08    5.40
   7   3 -11   48.12    5.03
   5  -3 -11   12.97    3.41
   5  -3 -11    7.38    4.11
  -5  -3  11    7.45    4.09
  -5  -3  11    9.75    3.13
   5  -3 -11   14.97    3.05
   5   3 -11   10.61    2.77
  -5   3  11   11.71    2.87
  -5   3  11   11.94    3.90
  -5   3  11   12.16    4.09
   5   3 -11   14.19    3.35
  -3  -3  11  135.33    8.66
   3  -3 -11  140.21    7.42
   3  -3 -11  137.61    9.37
  -3  -3  11  110.31    9.91
   3  -3 -11  136.51    8.41
   3  -3 -11  120.30    8.01
   3   3 -11  143.90    8.59
  -3   3  11  117.93    8.55
  -3   3  11  139.51    8.44
   3   3 -11  131.00    7.13
  -1  -3  11   17.37    3.21
   1  -3 -11   15.55    3.27
  -1  -3  11   16.27    3.41
   1  -3 -11   12.18    2.94
   1  -3 -11   17.16    3.03
  -1   3  11   16.47    3.24
   1   3 -11   19.00    2.77
  -1  -3 -11   43.42    4.73
  -1  -3 -11   32.92    4.81
   1  -3  11   46.07    4.60
   1  -3  11   38.83    4.95
  -1  -3 -11   35.95    4.57
   1   3  11   30.72    5.66
   1   3  11   33.29    4.11
  -1   3 -11   37.69    4.91
  -1   3 -11   34.99    3.75
  -3  -3 -11  103.43    7.24
   3  -3  11  104.96    7.07
  -3  -3 -11  108.10    7.64
  -3  -3 -11  107.12    7.10
  -3   3 -11  108.05    7.80
   3   3  11   96.09    7.94
  -3   3 -11   98.59    6.32
   3   3  11  104.59    6.84
   5  -3  11   66.11    7.44
  -5  -3 -11   65.93    7.11
  -5  -3 -11   49.46    6.80
  -5  -3 -11   46.90    6.27
  -5   3 -11   65.46    6.80
   5   3  11   60.30    6.23
   5   3  11   62.63    5.32
  -5   3 -11   80.32    5.57
  -7  -3 -11   -0.57    3.32
   7  -3  11    9.43    4.49
  -7  -3 -11    6.48    3.66
  -7   3 -11    6.80    2.97
  -7   3 -11    2.13    3.98
   7   3  11    3.63    2.65
   7   3  11    9.45    3.70
   9  -3  11   26.96    5.88
  -9  -3 -11   29.91    5.49
  -9  -3 -11   24.33    5.80
  -9   3 -11   34.87    7.45
  -9   3 -11   26.90    4.07
   9   3  11   29.31    5.51
  -9   3 -11   26.50    5.86
 -10  -4  11   81.43    8.76
  10  -4 -11   84.72    6.87
  10  -4 -11   69.31    8.55
  10  -4 -11   81.71    9.44
 -10  -4  11   82.44    8.66
 -10   4  11   68.05    8.13
  10   4 -11   84.61    7.10
 -10   4  11   66.12    7.99
 -10   4  11   82.44    8.25
  10   4 -11   77.35    8.86
   8  -4 -11   64.46    7.75
  -8  -4  11   66.93    7.43
   8  -4 -11   72.11    6.16
  -8  -4  11   71.94    8.13
   8  -4 -11   57.92    7.64
   8   4 -11   77.07    8.13
   8   4 -11   72.67    6.22
  -8   4  11   67.04    6.44
  -8   4  11   62.92    7.30
  -8   4  11   72.13    7.71
   6  -4 -11   58.86    7.25
   6  -4 -11   61.58    4.83
  -6  -4  11   52.90    6.17
  -6  -4  11   42.47    5.80
   6  -4 -11   50.85    6.78
   6  -4 -11   59.89    5.67
   6   4 -11   52.81    5.09
  -6   4  11   60.00    6.66
  -6   4  11   49.48    5.20
  -6   4  11   54.37    6.46
   4  -4 -11    7.32    2.59
  -4  -4  11    8.84    3.33
   4  -4 -11   10.71    4.05
   4  -4 -11   15.65    2.47
  -4  -4  11   16.27    4.21
   4   4 -11    8.26    2.42
  -4   4  11   14.02    2.71
   4   4 -11    6.80    2.89
  -4   4  11    6.38    3.44
  -4   4  11    8.75    4.02
   2  -4 -11   24.66    3.89
  -2  -4  11   24.06    4.16
  -2  -4  11   20.98    4.66
   2  -4 -11   32.56    3.63
   2  -4 -11   21.71    3.87
   2   4 -11   28.38    2.97
  -2   4  11   25.97    3.81
  -2   4  11   22.24    4.38
   0  -4 -11   97.02    7.23
   0  -4 -11  107.83    7.59
   0  -4 -11   94.36    7.42
   0  -4 -11  116.15    7.84
   0  -4  11  103.20    7.64
   0   4  11  109.62    7.04
   0   4  11  102.84    7.96
   0   4 -11  107.32    5.71
   0   4 -11  104.99    7.71
  -2  -4 -11  142.49    9.06
  -2  -4 -11  127.66    8.02
   2  -4  11  135.31    8.42
   2  -4  11  134.63    8.82
  -2  -4 -11  123.87    9.70
   2   4  11  133.78    8.90
  -2   4 -11  127.97    6.87
   2   4  11  133.65    8.03
  -2   4 -11  134.18    8.96
  -4  -4 -11    3.60    4.01
   4  -4  11    2.40    3.98
  -4  -4 -11   -2.80    2.38
  -4  -4 -11    5.06    4.03
   4   4  11    3.07    2.64
  -4   4 -11   -3.59    2.82
   4   4  11   -2.51    2.82
  -6  -4 -11   91.48    8.45
  -6  -4 -11   82.08    8.28
   6  -4  11   99.50    8.68
  -6   4 -11   93.42    7.05
   6   4  11   93.46    6.43
   6   4  11   84.58    7.35
  -8  -4 -11   78.26    8.70
  -8  -4 -11   89.20    8.98
   8  -4  11   76.37    8.97
  -8   4 -11  104.23   10.41
   8   4  11   95.51    6.24
   8   4  11   86.77    8.02
  -8   4 -11   94.85    7.38
 -11   5  11   20.47    6.30
   9  -5 -11   11.36    3.65
  -9  -5  11    4.90    4.49
  -9  -5  11    5.54    4.12
   9  -5 -11   13.92    5.28
   9  -5 -11   19.11    5.80
  -9   5  11   16.79    4.61
  -9   5  11   10.36    4.47
   9   5 -11    4.44    4.75
   9   5 -11    4.09    3.60
  -9   5  11    9.96    4.69
   7  -5 -11   23.33    5.49
  -7  -5  11   10.91    4.28
   7  -5 -11   18.13    5.14
   7  -5 -11   22.00    4.20
   7   5 -11   23.21    3.66
  -7   5  11   18.63    4.75
  -7   5  11   15.91    4.82
  -7   5  11   22.31    3.92
   7   5 -11   16.11    5.04
   5  -5 -11  124.75    9.93
  -5  -5  11  129.61    9.12
   5  -5 -11  126.78    8.62
   5  -5 -11  144.72   10.28
  -5  -5  11  131.07    9.61
   5   5 -11  135.74    8.73
  -5   5  11  131.65    9.19
   5   5 -11  142.70    7.17
  -5   5  11  140.63    8.14
  -5   5  11  133.17    9.59
  -3  -5  11   46.86    5.75
   3  -5 -11   40.68    6.14
   3  -5 -11   48.48    5.31
  -3  -5  11   54.40    6.41
   3  -5 -11   55.73    4.26
   3   5 -11   43.15    4.97
  -3   5  11   38.79    5.31
  -3   5  11   39.23    5.69
   3   5 -11   49.70    3.69
  -3   5  11   54.45    4.47
   1  -5 -11   19.35    4.58
   1  -5 -11   11.73    4.57
   1  -5 -11   21.70    3.16
  -1  -5  11   18.96    3.84
   1  -5 -11   17.12    4.22
  -1  -5  11   12.08    4.30
  -1   5  11   13.12    3.95
   1   5 -11   18.61    4.35
  -1   5  11   20.50    3.54
  -1  -5 -11    7.20    4.07
   1  -5  11    6.03    3.04
  -1  -5 -11   -0.18    4.15
  -1  -5 -11    3.96    4.12
   1  -5  11    5.68    3.48
   1   5  11   -1.72    2.46
  -1   5 -11   -0.57    3.81
   1   5  11    4.91    3.46
  -3  -5 -11  149.01   10.28
  -3  -5 -11  161.97    9.11
   3   5  11  152.02    8.92
   3   5  11  143.12    9.25
  -3   5 -11  144.76   10.60
   5  -5  11   97.27    8.95
  -5  -5 -11   77.96    8.12
  -5   5 -11   96.62    7.29
  -5   5 -11  104.72    9.58
   5   5  11  114.78    7.00
   5   5  11   93.12    7.58
  -7  -5 -11    4.44    4.14
   7  -5  11   -2.17    4.21
  -7  -5 -11   -0.56    4.20
  -7   5 -11    7.89    5.18
   7   5  11    0.88    3.37
   7   5  11    0.35    2.82
  -7   5 -11   -0.91    3.24
   9  -5  11    3.10    4.85
  -9  -5 -11    1.66    4.94
  -9  -5 -11   10.32    5.52
   9   5  11    4.54    4.13
  -9   5 -11    6.23    3.73
  -9   5 -11    1.52    5.30
 -10  -6  11   47.35    7.05
  10  -6 -11   52.69    7.76
  10  -6 -11   42.42    6.73
  10  -6 -11   51.14    8.33
  10   6 -11   60.17    6.53
 -10   6  11   44.92    7.18
  10   6 -11   55.54    7.55
 -10   6  11   51.61    7.21
 -10   6  11   51.44    6.80
   8  -6 -11  127.93   11.00
  -8  -6  11  140.83   10.98
   8  -6 -11  135.49   10.53
  -8  -6  11  115.57   10.24
   8  -6 -11  135.50   11.02
   8   6 -11  136.76   10.69
   8   6 -11  167.50    8.37
  -8   6  11  145.16   10.37
  -8   6  11  156.60   10.99
  -8   6  11  138.61   10.49
  -6  -6  11   88.62    8.54
   6  -6 -11   76.28    8.76
   6  -6 -11   78.82    8.40
  -6  -6  11  100.65    8.67
   6  -6 -11   94.59    9.18
  -6   6  11   76.11    8.30
   6   6 -11   92.56    5.31
  -6   6  11   89.38    6.79
   6   6 -11   88.99    7.64
  -6   6  11   78.36    7.85
   4  -6 -11   17.91    4.90
   4  -6 -11   30.74    5.73
  -4  -6  11   33.57    5.04
  -4  -6  11   29.06    5.38
  -4   6  11   31.36    5.57
   4   6 -11   33.54    4.64
  -4   6  11   32.64    5.14
  -4   6  11   34.80    3.87
  -2  -6  11  123.79    9.27
   2  -6 -11  137.32    7.32
   2  -6 -11  138.27    9.94
   2  -6 -11  135.74   10.15
  -2  -6  11  124.14    9.02
  -2   6  11  134.27    9.58
  -2   6  11  147.86    7.25
  -2   6  11  138.35    9.07
   0  -6  11  101.54    8.23
   0  -6 -11   91.35    6.65
   0  -6 -11  105.31    9.06
   0  -6 -11   94.24    8.38
   0  -6  11  106.43    8.00
   0   6  11   84.39    7.45
   0   6 -11  103.86    8.79
   0   6  11  108.41    7.36
  -2  -6 -11   11.70    4.55
   2  -6  11   14.62    4.08
  -2  -6 -11   16.40    3.44
  -2  -6 -11    6.13    4.19
  -2   6 -11   12.36    4.60
   2   6  11    7.09    2.89
   2   6  11   11.18    3.46
   4  -6  11    2.81    4.48
  -4  -6 -11    2.87    3.86
  -4  -6 -11    5.55    3.04
   4   6  11    3.87    3.17
  -4   6 -11    2.59    3.71
   4   6  11   -1.03    2.78
   6  -6  11   31.45    6.24
  -6  -6 -11   33.95    6.03
  -6  -6 -11   33.95    6.46
  -6   6 -11   51.27    5.73
   6   6  11   33.19    5.16
  -6   6 -11   35.55    6.35
   6   6  11   40.31    4.60
   8  -6  11  121.10   10.64
  -8  -6 -11  108.25   10.27
  -8  -6 -11   81.47    9.36
  -8   6 -11  113.95   11.03
   8   6  11   85.37    8.15
  -8   6 -11  130.90    9.26
  -9  -7  11   -1.73    5.06
   9  -7 -11    7.60    5.13
   9  -7 -11   10.30    5.47
   9  -7 -11    4.92    5.29
  -9   7  11   -1.76    4.18
  -9   7  11    2.90    4.70
  -9   7  11   -2.22    4.40
   9   7 -11    3.73    5.17
  -7  -7  11    1.76    4.34
   7  -7 -11   13.61    4.75
   7  -7 -11    8.63    4.77
   7  -7 -11    6.80    4.86
  -7  -7  11    6.40    4.69
  -7   7  11   15.95    5.24
  -7   7  11   11.78    4.62
  -7   7  11    9.60    4.62
   7   7 -11   12.44    5.03
   5  -7 -11   76.09    8.48
  -5  -7  11   63.51    7.22
  -5  -7  11   70.24    7.65
   5  -7 -11   65.73    7.89
  -5   7  11   69.68    7.40
  -5   7  11   76.00    8.21
  -5   7  11   78.00    6.11
   5   7 -11   74.22    6.67
   3  -7 -11   77.99    8.38
   3  -7 -11   84.65    8.22
  -3  -7  11   82.81    7.96
  -3  -7  11   80.90    8.20
  -3   7  11   89.93    8.08
  -3   7  11   83.19    6.15
  -3   7  11   87.04    7.60
   1  -7 -11   20.52    3.23
  -1  -7  11   18.88    4.28
   1  -7 -11   16.02    5.04
   1  -7 -11   18.47    5.08
   1   7 -11   15.20    4.45
  -1   7  11   20.66    2.67
  -1   7  11   22.95    4.21
  -1   7  11   16.85    4.58
   1  -7  11   26.78    4.78
  -1  -7 -11   36.71    4.47
  -1  -7 -11   32.73    6.26
  -1  -7 -11   23.89    5.46
  -1   7 -11   26.00    5.39
   1   7  11   39.33    5.12
   1   7  11   30.07    4.73
  -3  -7 -11   88.52    8.58
  -3  -7 -11   68.54    8.48
  -3  -7 -11   80.77    6.63
   3   7  11   70.42    6.84
   3   7  11   65.42    6.32
  -3   7 -11   69.48    8.28
  -5  -7 -11   44.37    6.87
   5  -7  11   65.10    7.66
  -5  -7 -11   56.25    6.89
  -5   7 -11   51.28    7.30
   5   7  11   55.89    6.33
   5   7  11   58.96    5.93
  -5   7 -11   50.50    6.61
   7  -7  11   -2.85    4.97
  -7  -7 -11    9.53    5.59
  -7  -7 -11    7.19    5.28
   7   7  11    5.31    3.45
  -7   7 -11    4.87    5.21
   7   7  11    3.49    3.52
  -7   7 -11    4.60    4.92
   6  -8 -11    9.79    4.93
  -6  -8  11   13.99    5.08
   6  -8 -11   12.86    5.84
  -6  -8  11    3.88    4.58
  -6   8  11   13.97    3.62
  -6   8  11   15.44    5.54
  -6   8  11    6.50    4.37
   6   8 -11   16.52    4.30
  -4  -8  11    2.83    4.39
   4  -8 -11   -2.92    4.21
  -4  -8  11    1.70    4.07
   4  -8 -11    6.86    4.57
  -4   8  11    3.09    3.39
  -4   8  11    1.22    2.91
  -4   8  11   -1.17    3.87
   4   8 -11    1.33    2.97
  -2  -8  11   44.62    6.30
   2  -8 -11   46.65    6.83
   2  -8 -11   39.40    6.76
  -2  -8  11   46.35    5.60
  -2   8  11   49.77    4.94
  -2   8  11   28.67    5.02
  -2   8  11   40.84    6.34
   2   8 -11   34.34    6.30
   0  -8 -11   67.58    8.12
   0  -8  11   63.46    7.69
   0  -8 -11   52.79    7.52
   0  -8 -11   56.16    5.73
   0   8 -11   66.72    8.00
   0   8  11   70.28    7.43
   0   8  11   66.22    6.84
  -2  -8 -11   19.13    3.90
  -2  -8 -11   21.15    5.29
  -2  -8 -11   19.58    5.67
   2  -8  11   19.26    8.42
  -2   8 -11   22.97    5.73
   2   8  11   11.68    3.80
  -4  -8 -11    2.20    5.72
   4  -8  11   -3.52    5.58
  -4  -8 -11   -1.56    4.85
  -4  -8 -11    1.40    4.36
   4   8  11    0.12    3.42
  -4   8 -11    0.49    4.48
   4   8  11    0.26    3.19
   6   8  11   50.18    5.22
   5  -9 -11    4.68    4.55
   5  -9 -11   -0.14    4.39
  -5  -9  11    3.35    5.31
  -5   9  11   -0.64    4.54
   5   9 -11   -2.19    3.62
  -5   9  11   -2.58    3.83
  -5   9  11   -2.00    3.24
  -3  -9  11   15.25    4.22
   3  -9 -11   14.61    5.51
  -3  -9  11   11.28    5.13
   3  -9 -11    5.00    5.05
  -3   9  11    9.80    4.12
   3   9 -11   15.32    4.75
  -3   9  11    7.81    4.53
  -3   9  11   14.61    3.60
   1  -9 -11   20.32    5.74
  -1  -9  11   26.78    4.41
   1  -9 -11   23.65    6.05
  -1  -9  11   21.58    5.23
  -1   9  11   22.12    5.23
   1   9 -11   18.08    5.37
  -1   9  11   18.22    4.51
  -1  -9 -11    7.63    3.58
  -1  -9 -11    1.52    4.49
   1  -9  11   10.41    5.01
  -1  -9 -11    3.68    4.74
   1   9  11    6.57    4.18
  -1   9 -11    6.25    4.61
   1   9  11   12.23    3.91
   3  -9  11   21.35    6.80
  -3  -9 -11   18.84    5.78
  -3  -9 -11   19.81    5.92
  -3  -9 -11   18.86    4.65
   3   9  11   25.50    4.55
  -3   9 -11   16.56    5.39
   3   9  11   29.09    5.69
  10   0 -12  144.64   11.29
 -10   0  12  159.58   11.77
  10   0 -12  151.36   11.88
 -10   0  12  148.12   12.09
  -8   0  12   89.28    8.83
   8   0 -12   91.19    9.40
  -8   0  12  103.15    9.44
  -6   0  12   10.80    4.15
   6   0 -12    7.89    3.32
  -6   0  12   13.01    4.47
   6   0 -12    5.87    4.30
   4   0 -12   55.42    6.83
  -4   0  12   43.55    6.25
   4   0 -12   47.23    5.15
  -4   0  12   49.35    6.33
   2   0 -12  122.12    7.93
  -2   0  12  128.15    9.33
  -2   0  12  129.43    9.24
   0   0  12  107.93    8.55
   0   0  12  112.30    7.93
   0   0 -12  118.02    7.53
   0   0 -12  129.38    8.66
   2   0  12    4.07    3.20
   2   0  12    0.60    2.66
  -2   0 -12    1.44    2.62
  -4   0 -12  108.15    7.69
   4   0  12  110.71    7.60
  -4   0 -12  123.22    8.92
   4   0  12  103.19    8.73
   6   0  12  112.85    7.36
  -6   0 -12   96.41    8.89
   6   0  12  100.18    8.67
  -6   0 -12  105.37    7.87
  -6   0 -12   93.24    8.85
  -8   0 -12   85.37    8.97
   8   0  12   69.72    8.38
  -8   0 -12   96.81    9.20
  -8   0 -12   78.42    8.75
  11  -1 -12   76.67    9.24
 -11  -1  12   55.63    7.61
 -11   1  12   70.19    8.11
 -11   1  12   67.94    8.34
  11   1 -12   52.16    7.75
  -9  -1  12    3.64    4.87
  -9  -1  12    2.90    4.28
   9  -1 -12    0.52    3.99
   9  -1 -12    2.23    4.63
   9   1 -12   11.15    5.94
  -9   1  12   -0.06    4.25
   9   1 -12    1.51    4.43
  -9   1  12    9.80    4.95
   7  -1 -12  248.26   14.50
  -7  -1  12  235.81   14.00
   7  -1 -12  188.60   14.62
  -7  -1  12  243.99   13.97
  -7   1  12  241.94   13.60
   7   1 -12  230.70   14.16
   7   1 -12  237.81   12.56
  -7   1  12  241.51   13.87
   5  -1 -12   81.73    6.68
  -5  -1  12   67.69    7.33
  -5  -1  12   80.98    8.41
   5  -1 -12   69.74    7.95
   5   1 -12   84.85    8.25
  -5   1  12   82.46    7.90
   5   1 -12   74.33    6.44
  -5   1  12   89.03    7.97
  -3  -1  12    0.36    3.81
   3  -1 -12    7.84    2.93
  -3  -1  12    6.70    3.79
  -3   1  12    1.66    3.70
   3   1 -12   -1.16    2.34
  -3   1  12    7.84    4.22
   3   1 -12    3.89    3.90
   1  -1 -12    4.83    2.32
  -1  -1  12    2.88    3.23
  -1  -1  12   -2.55    3.33
  -1   1  12    8.69    3.96
   1   1 -12    6.57    2.59
   1  -1  12   56.37    5.62
   1  -1  12   39.92    5.67
  -1  -1 -12   44.35    5.13
  -1  -1 -12   42.54    5.74
   1   1  12   53.18    5.28
  -1   1 -12   51.73    5.17
  -1   1 -12   52.37    6.16
   1   1  12   58.63    6.51
   3  -1  12  155.79   10.30
  -3  -1 -12  158.43   11.00
  -3  -1 -12  169.21   10.23
  -3  -1 -12  142.28    9.02
   3  -1  12  151.26    9.12
  -3   1 -12  150.17    8.92
  -3   1 -12  146.28    9.87
   3   1  12  152.78    9.03
   3   1  12  152.36   10.15
   5  -1  12   51.37    5.43
  -5  -1 -12   52.63    6.69
  -5  -1 -12   64.73    7.32
  -5  -1 -12   52.40    6.11
   5  -1  12   37.37    6.06
   5   1  12   46.06    6.07
  -5   1 -12   49.18    5.40
  -5   1 -12   50.96    6.37
   5   1  12   44.46    4.91
  -7  -1 -12    5.41    4.63
   7  -1  12    4.04    3.77
  -7  -1 -12   12.52    5.05
  -7  -1 -12    8.59    4.65
  -7   1 -12    4.84    4.27
  -7   1 -12    9.55    3.69
   7   1  12    9.71    4.35
  -7   1 -12   13.02    4.68
   7   1  12   11.62    3.50
   9  -1  12  113.70   10.36
  -9  -1 -12  119.47   10.54
  -9  -1 -12  129.04   10.83
   9   1  12  115.67   10.25
  -9   1 -12  125.05   11.04
  -9   1 -12  123.60   11.00
  10  -2 -12   24.92    6.00
 -10  -2  12   25.59    5.99
  10  -2 -12   28.95    4.23
  10  -2 -12   28.95    6.59
 -10  -2  12   34.02    6.86
 -10   2  12   19.77    5.60
  10   2 -12   32.14    6.39
 -10   2  12   34.85    6.50
  10   2 -12   18.94    6.24
 -10   2  12   24.21    5.57
   8  -2 -12   21.96    3.95
  -8  -2  12   18.55    5.89
  -8  -2  12   14.45    4.58
   8  -2 -12   24.75    5.31
   8  -2 -12   23.64    5.58
   8   2 -12    1.67    4.98
  -8   2  12   21.08    4.98
   8   2 -12   24.35    4.27
  -8   2  12   22.89    5.60
  -8   2  12   13.48    4.51
  -6  -2  12   32.92    5.96
   6  -2 -12   42.94    6.58
  -6  -2  12   22.40    5.21
   6  -2 -12   25.31    5.38
  -6   2  12   32.19    5.41
  -6   2  12   28.55    5.20
   6   2 -12   37.82    4.51
   6   2 -12   23.65    5.51
  -4  -2  12   19.56    4.49
   4  -2 -12   13.74    4.46
   4  -2 -12   14.93    3.45
  -4  -2  12   12.53    4.59
   4   2 -12   16.74    4.90
   4   2 -12   19.77    3.53
  -4   2  12   23.68    4.72
  -4   2  12   22.77    4.53
   2  -2 -12  120.66    7.88
  -2  -2  12  120.39    9.08
  -2  -2  12  106.37    8.77
  -2   2  12  112.88    8.76
  -2   2  12  106.72    8.65
   2   2 -12  108.36    6.92
   0  -2 -12  131.88    8.82
   0  -2  12  120.96    8.86
   0  -2  12  125.64    9.38
   0  -2 -12  130.24    8.05
   0  -2 -12  109.38    7.82
   0   2  12  127.61    8.19
   0   2 -12  121.85    7.41
   0   2 -12  116.30    8.66
   0   2  12  119.79    8.80
  -2  -2 -12    1.31    2.69
   2  -2  12    0.72    3.04
   2  -2  12   -0.67    3.53
  -2  -2 -12    7.23    4.06
  -2  -2 -12    8.28    2.74
  -2   2 -12    6.70    3.47
   2   2  12   -0.26    2.57
   2   2  12    6.67    3.33
  -2   2 -12    3.63    2.56
  -4  -2 -12   61.98    7.18
   4  -2  12   76.87    6.29
   4  -2  12   84.67    8.06
  -4  -2 -12   75.79    7.79
   4   2  12   81.15    7.43
   4   2  12   70.92    6.04
  -4   2 -12   70.94    7.09
  -4   2 -12   76.48    5.84
  -4   2 -12   68.80    6.02
  -6  -2 -12   30.77    5.76
  -6  -2 -12   32.60    5.90
  -6  -2 -12   38.02    6.02
   6  -2  12   38.04    6.30
   6   2  12   40.74    4.63
  -6   2 -12   36.73    4.81
  -6   2 -12   38.45    5.98
   6   2  12   35.91    5.58
  -6   2 -12   34.15    3.97
  -8  -2 -12    3.55    4.47
  -8  -2 -12   12.46    5.16
   8  -2  12    4.09    4.57
  -8   2 -12   12.37    5.35
   8   2  12    8.24    4.39
   8   2  12    6.34    3.41
  -8   2 -12   12.03    4.89
   9  -3 -12    3.71    3.18
  -9  -3  12    5.32    5.73
  -9  -3  12    9.99    5.11
   9  -3 -12    5.43    4.62
   9  -3 -12    5.21    4.75
   9   3 -12   12.03    3.81
   9   3 -12    8.40    5.17
  -9   3  12    8.32    4.87
  -9   3  12    2.44    4.66
  -9   3  12    8.02    3.88
  -7  -3  12   14.39    5.51
   7  -3 -12   12.54    3.62
  -7  -3  12   15.57    4.89
   7  -3 -12   16.90    5.02
   7  -3 -12    5.56    4.03
  -7   3  12   11.30    4.50
  -7   3  12   14.41    3.39
   7   3 -12   13.53    4.69
  -7   3  12   15.17    4.60
   7   3 -12   22.03    3.79
   5  -3 -12   81.26    8.44
   5  -3 -12   87.74    6.67
  -5  -3  12   87.28    8.22
   5  -3 -12   98.81    8.80
  -5  -3  12   52.75    9.97
   5  -3 -12   88.03    6.03
  -5   3  12   67.69    7.46
  -5   3  12   78.40    8.12
   5   3 -12   88.22    6.25
   5   3 -12   85.51    8.63
  -3  -3  12   19.75    4.43
   3  -3 -12   13.02    7.38
   3  -3 -12   22.12    3.49
   3  -3 -12   21.29    4.04
  -3   3  12   33.57    5.06
  -3   3  12   20.81    4.84
   3   3 -12   17.55    5.03
   3   3 -12   28.32    3.69
   1  -3 -12   46.00    5.78
  -1  -3  12   35.45    5.66
   1  -3 -12   39.26    6.20
  -1  -3  12   31.81    5.02
   1  -3 -12   38.39    4.83
  -1   3  12   31.27    5.22
   1   3 -12   39.26    4.37
   1   3 -12   39.21    5.97
  -1   3  12   36.12    5.81
  -1  -3 -12   25.35    4.80
  -1  -3 -12   12.89    3.29
   1  -3  12   16.67    4.69
   1  -3  12   16.42    4.55
  -1   3 -12   21.37    3.17
   1   3  12   23.17    4.59
  -1   3 -12   16.58    4.22
   1   3  12   20.30    3.63
  -3  -3 -12   31.29    4.59
   3  -3  12   23.25    4.97
   3  -3  12   28.04    5.26
  -3  -3 -12   19.49    5.08
  -3  -3 -12   34.96    5.06
  -3   3 -12   33.77    3.95
   3   3  12   27.38    5.07
  -3   3 -12   25.86    5.06
   3   3  12   32.24    4.39
   5  -3  12   40.82    6.31
  -5  -3 -12   44.21    6.00
  -5  -3 -12   54.77    6.55
  -5  -3 -12   37.41    6.16
   5   3  12   55.16    6.75
  -5   3 -12   63.32    7.37
  -5   3 -12   50.67    5.85
   5   3  12   62.38    5.52
  -7  -3 -12   14.00    5.08
   7  -3  12    6.19    4.43
  -7  -3 -12   19.10    4.88
  -7   3 -12   20.33    6.77
   7   3  12   11.93    4.29
   7   3  12   12.03    3.46
  -7   3 -12   13.77    3.64
  -8  -4  12   -1.73    5.12
   8  -4 -12   -5.39    4.21
  -8  -4  12   -2.37    3.85
   8  -4 -12    4.30    3.25
   8  -4 -12   -1.11    4.66
  -8   4  12    2.72    4.10
  -8   4  12   -1.19    4.32
  -8   4  12   -0.65    4.09
   8   4 -12    1.65    4.40
   8   4 -12   -1.29    3.33
   6  -4 -12   10.58    4.76
   6  -4 -12   12.83    4.99
  -6  -4  12   12.17    4.38
   6  -4 -12    6.82    3.11
  -6   4  12    0.01    3.86
   6   4 -12   11.79    3.33
  -6   4  12    7.38    4.15
   6   4 -12    8.46    4.49
  -6   4  12    6.21    2.75
  -4  -4  12   -4.57    3.00
  -4  -4  12    2.84    4.52
   4  -4 -12    1.54    3.95
   4  -4 -12    2.63    2.87
   4  -4 -12   -2.86    2.57
  -4   4  12    3.39    3.61
   4   4 -12    4.05    2.68
   4   4 -12    0.98    4.02
  -4   4  12   -0.63    3.20
   2  -4 -12   36.63    6.03
   2  -4 -12   38.02    4.30
  -2  -4  12   35.79    5.33
  -2   4  12   37.91    5.36
  -2   4  12   41.58    6.05
   2   4 -12   39.43    4.29
   0  -4 -12    6.05    4.07
   0  -4 -12    3.22    2.80
   0  -4  12    9.10    4.23
   0  -4 -12   10.19    4.42
   0  -4  12    3.95    3.63
   0   4 -12    4.08    4.20
   0   4 -12    5.70    2.39
   0   4  12    6.97    3.56
   2  -4  12    2.74    4.12
  -2  -4 -12    4.29    4.18
  -2  -4 -12   -3.50    2.58
  -2  -4 -12   -0.40    3.56
   2  -4  12    2.39    3.48
  -2   4 -12    1.21    4.22
  -2   4 -12   -3.69    2.33
   2   4  12   -2.00    3.29
   2   4  12    1.83    2.68
  -4  -4 -12    2.97    3.81
  -4  -4 -12    6.34    4.63
   4  -4  12    7.84    4.39
   4   4  12    6.41    3.17
  -4   4 -12    4.66    3.24
   4   4  12    3.38    3.45
  -4   4 -12    2.33    4.77
  -6  -4 -12   11.70    4.58
   6  -4  12   17.18    5.31
  -6  -4 -12   25.59    5.83
  -6   4 -12   16.11    5.65
   6   4  12   20.29    4.50
   6   4  12   20.16    3.91
  -6   4 -12   19.63    4.07
  -8  -4 -12    0.19    4.62
  -8   4 -12   -1.25    3.70
  -8   4 -12    4.27    5.76
   8   4  12   -6.95    4.78
   9  -5 -12    6.91    5.20
  -9  -5  12   -0.18    4.19
   9  -5 -12    1.80    4.96
   9  -5 -12   -4.82    5.01
  -9   5  12    3.31    4.38
  -9   5  12   -2.73    4.48
  -9   5  12    2.57    4.21
   9   5 -12    4.21    3.48
   9   5 -12   -8.92    4.29
   7  -5 -12   18.40    5.35
  -7  -5  12    6.45    4.75
   7  -5 -12    4.96    5.50
  -7  -5  12   15.24    5.29
   7  -5 -12    7.03    4.84
  -7   5  12    9.22    3.52
  -7   5  12   14.26    5.46
   7   5 -12   11.44    3.55
  -7   5  12   10.38    4.23
   7   5 -12    3.34    4.23
   5  -5 -12   -2.04    4.00
  -5  -5  12   -6.39    4.04
  -5  -5  12   -5.29    3.69
   5  -5 -12    2.05    4.27
   5  -5 -12   -2.85    4.28
   5   5 -12   -1.05    4.33
  -5   5  12    4.68    3.70
   5   5 -12   -0.31    2.52
  -5   5  12    1.40    2.52
  -5   5  12    0.83    4.14
  -3  -5  12    7.43    4.09
   3  -5 -12   13.73    4.88
  -3  -5  12   19.05    5.16
   3  -5 -12   18.61    3.24
   3  -5 -12   12.96    4.52
   3   5 -12   18.46    2.32
  -3   5  12    6.19    4.02
  -3   5  12   16.31    4.36
  -1  -5  12    2.60    3.70
   1  -5 -12   -1.25    3.77
   1  -5 -12    1.21    4.03
   1  -5 -12    0.28    2.74
   1  -5 -12   -1.21    4.60
  -1   5  12   -3.22    3.38
  -1   5  12    1.57    3.73
   1   5 -12   -0.82    3.96
  -1  -5 -12    7.59    3.07
   1  -5  12    1.29    3.54
   1  -5  12    1.97    4.45
  -1  -5 -12    5.26    3.77
   1   5  12    9.56    3.80
  -1   5 -12   -4.09    3.61
   3  -5  12    3.29    4.02
  -3  -5 -12    4.49    4.19
  -3  -5 -12    1.23    3.16
   3   5  12    9.22    3.06
   3   5  12    1.62    3.47
  -3   5 -12    0.10    4.35
  -5  -5 -12   10.19    4.54
  -5  -5 -12   17.08    5.14
   5  -5  12   18.54    5.46
   5   5  12   10.68    3.52
  -5   5 -12   11.75    3.79
  -5   5 -12   16.41    5.22
   5   5  12   15.83    4.13
  -7  -5 -12   -3.87    4.56
   7  -5  12   -3.45    4.66
  -7  -5 -12   -8.26    4.47
  -7   5 -12    7.81    3.67
  -7   5 -12   -1.51    5.40
   7   5  12   -3.71    3.44
   7   5  12    5.23    3.80
   8  -6 -12   -2.61    4.63
   8  -6 -12    6.55    5.15
  -8  -6  12    4.57    4.38
   8  -6 -12    4.63    4.71
  -8   6  12   -3.62    4.20
   8   6 -12   -0.40    4.70
  -8   6  12    5.18    4.47
  -8   6  12   -4.49    4.39
   6  -6 -12   -5.37    4.27
  -6  -6  12    5.21    4.57
   6  -6 -12   -2.74    4.10
   6  -6 -12    8.15    5.00
  -6  -6  12    0.54    4.72
   6   6 -12   -0.93    4.29
  -6   6  12    5.02    4.32
  -6   6  12    2.89    4.02
  -6   6  12    0.78    3.03
   4  -6 -12    7.86    4.49
   4  -6 -12    7.90    4.60
  -4  -6  12   10.24    4.49
  -4   6  12    9.76    4.78
  -4   6  12    9.30    3.09
  -4   6  12   10.85    4.15
   2  -6 -12    2.85    2.95
   2  -6 -12    1.11    4.05
  -2  -6  12    2.74    4.09
   2  -6 -12    9.22    4.53
  -2  -6  12    0.07    4.18
  -2   6  12   -5.78    3.51
  -2   6  12   -1.84    3.47
   2   6 -12    0.46    4.22
   0  -6 -12    4.45    4.41
   0  -6 -12    2.48    4.27
   0  -6  12    0.15    4.31
   0  -6 -12    9.65    3.25
   0  -6  12    7.47    4.18
   0   6  12   -0.20    3.69
   0   6  12    6.59    4.18
   0   6 -12    6.13    4.64
   2  -6  12   11.69    5.40
  -2  -6 -12    5.63    4.33
  -2  -6 -12    7.49    3.53
  -2   6 -12    6.83    4.58
   2   6  12   11.06    4.02
  -4  -6 -12   11.17    4.54
  -4  -6 -12    3.60    4.59
   4  -6  12    2.83    5.00
  -4   6 -12    8.49    5.22
   4   6  12    2.86    3.59
   4   6  12    7.34    3.35
  -6  -6 -12   39.03    6.46
  -6  -6 -12   31.19    6.31
   6  -6  12   28.39    6.39
  -6   6 -12   28.64    5.45
  -6   6 -12   33.94    6.70
   6   6  12   39.17    4.85
   6   6  12   24.82    4.98
  -5  -7  12   21.88    5.59
   5  -7 -12    9.14    5.18
  -5  -7  12   14.05    4.95
   5  -7 -12   11.78    5.68
  -5   7  12   18.52    5.74
  -5   7  12   18.83    4.84
   5   7 -12    6.61    5.17
  -5   7  12   23.19    3.94
   3  -7 -12   13.09    4.89
  -3  -7  12   17.83    5.20
   3  -7 -12   10.52    5.07
  -3  -7  12    8.30    4.71
  -3   7  12   14.27    4.61
  -3   7  12   18.10    5.06
  -3   7  12   21.45    3.36
   1  -7 -12   -0.63    4.28
   1  -7 -12    1.14    4.38
   1  -7 -12    9.65    3.43
  -1   7  12    3.83    4.27
  -1   7  12    2.37    3.50
   1   7 -12    9.61    4.89
  -1  -7 -12    5.21    3.55
  -1  -7 -12    5.38    4.54
  -1  -7 -12    9.47    5.13
   1  -7  12    7.07    5.32
   1   7  12    2.63    4.32
   1   7  12    3.66    3.73
  -1   7 -12    6.08    4.72
  -3  -7 -12   12.38    5.10
   3  -7  12    7.86    5.11
  -3  -7 -12   10.56    3.89
  -3   7 -12    6.51    4.77
   3   7  12   14.64    4.39
   4  -8 -12   66.82    8.73
   4  -8 -12   82.58    9.26
  -4  -8  12   84.90    9.11
  -4  -8  12   69.55    8.17
  -4   8  12   84.47    8.37
  -4   8  12   81.43    9.16
  -4   8  12   83.76    6.78
  -2  -8  12   19.72    4.39
   2  -8 -12   22.72    6.23
   2  -8 -12   12.62    5.50
  -2  -8  12   19.82    5.87
  -2   8  12   22.07    5.58
  -2   8  12   22.50    4.91
   2   8 -12   11.96    5.07
   0  -8 -12   16.39    5.70
   0  -8  12   18.39    6.66
   0  -8 -12   15.55    5.58
   0  -8 -12   27.71    4.19
   0   8  12   26.00    4.98
   0   8 -12   15.74    5.00
   0   8  12   19.39    5.33
  -2  -8 -12    1.81    4.81
   2  -8  12    4.31    5.75
  -2  -8 -12    8.65    4.00
  -2  -8 -12    7.25    5.35
   2   8  12    4.48    4.50
  -2   8 -12    8.93    5.07
   2   8  12    0.81    3.57
   8   0 -13    7.18    5.09
   8   0 -13   -1.42    4.43
  -8   0  13    2.59    4.46
  -8   0  13   -0.50    4.13
  -6   0  13   -0.86    4.76
  -6   0  13   -3.17    3.92
   6   0 -13    3.06    4.69
  -4   0  13    4.25    4.58
   4   0 -13   -1.84    2.82
   4   0 -13    0.04    3.87
  -4   0  13    2.09    4.07
  -2   0  13   -0.24    3.52
  -2   0  13   -1.18    3.79
   2   0 -13    0.70    2.64
   0   0  13   -4.97    3.56
   0   0 -13   -2.81    2.58
   0   0  13    4.58    3.82
  -2   0 -13   -3.94    2.66
   2   0  13    1.17    3.86
   2   0  13   -3.89    3.26
  -2   0 -13   -0.28    3.80
  -4   0 -13   -4.89    3.24
  -4   0 -13   -5.09    4.24
  -4   0 -13   -9.02    3.78
   4   0  13   -3.36    3.47
  -6   0 -13   -2.88    4.09
  -6   0 -13    0.42    4.91
   6   0  13    3.19    3.79
  -6   0 -13   -4.56    4.58
   6   0  13    1.05    3.20
  -9  -1  13    6.01    5.22
  -9  -1  13    5.46    4.75
   9  -1 -13    4.24    5.71
   9   1 -13   -0.31    5.21
  -9   1  13    4.21    4.98
  -9   1  13    0.56    4.98
  -7  -1  13   -4.28    4.17
   7  -1 -13    0.30    4.19
  -7  -1  13    0.81    4.93
   7  -1 -13   -1.47    4.69
   7   1 -13    1.23    5.01
  -7   1  13    3.13    4.11
  -7   1  13    1.64    4.32
   7   1 -13   -4.47    3.22
  -5  -1  13    5.87    4.48
   5  -1 -13    6.11    4.12
   5  -1 -13    4.45    4.51
  -5  -1  13    1.92    4.55
   5   1 -13    1.00    4.23
   5   1 -13    2.75    3.05
  -5   1  13    5.14    4.53
  -5   1  13    2.93    4.23
   3  -1 -13   -1.29    2.96
  -3  -1  13   -2.24    3.63
  -3  -1  13   -0.47    3.88
  -3   1  13    1.25    3.83
   3   1 -13    2.34    3.02
  -3   1  13    1.74    4.14
   1  -1 -13   -2.61    2.60
  -1  -1  13   -2.27    3.55
  -1  -1  13    6.18    4.14
   1  -1 -13    1.60    3.76
  -1   1  13    2.18    3.71
  -1   1  13   -0.65    3.52
   1   1 -13    4.21    3.47
   1   1 -13    0.28    2.71
  -1  -1 -13    3.29    4.31
   1  -1  13    9.21    3.97
  -1  -1 -13   10.74    3.52
   1  -1  13    8.15    4.31
  -1   1 -13    9.64    3.14
   1   1  13   12.53    4.66
  -1   1 -13   13.83    4.55
   1   1  13   15.97    4.49
   3  -1  13   25.92    5.29
   3  -1  13   21.20    5.22
  -3  -1 -13   28.91    5.41
  -3  -1 -13   24.27    5.37
   3   1  13   26.17    4.98
  -3   1 -13   27.50    5.14
  -3   1 -13   27.55    4.46
  -3   1 -13   31.64    3.82
   5  -1  13   10.39    5.01
  -5  -1 -13   18.34    5.24
   5  -1  13   17.03    5.71
  -5  -1 -13   20.68    5.74
  -5  -1 -13   23.98    5.62
  -5   1 -13   27.48    5.69
  -5   1 -13   17.87    4.18
   5   1  13   19.54    4.88
   5   1  13   16.51    3.97
  -5   1 -13   25.17    5.95
  -7  -1 -13   10.67    5.07
  -7  -1 -13    1.28    5.64
  -7   1 -13    9.55    5.58
   7   1  13    5.31    3.65
  -7   1 -13   18.13    5.78
  -8  -2  13    6.83    5.38
  -8  -2  13    2.77    4.38
   8  -2 -13    5.80    5.08
   8  -2 -13    5.33    4.93
   8   2 -13   -1.78    3.64
   8   2 -13    1.08    5.01
  -8   2  13    4.33    5.08
  -8   2  13   -1.66    4.21
   6  -2 -13    4.67    4.49
  -6  -2  13    6.41    4.20
   6  -2 -13    8.40    4.68
  -6  -2  13    4.44    4.97
   6   2 -13   11.25    5.18
   6   2 -13    6.09    3.29
  -6   2  13    4.18    4.28
  -6   2  13    6.84    4.51
   4  -2 -13   68.44    7.70
  -4  -2  13   44.73    6.65
  -4  -2  13   48.70    7.21
   4   2 -13   51.55    5.53
  -4   2  13   49.43    6.79
   4   2 -13   48.21    6.83
  -4   2  13   34.66    6.11
  -2  -2  13    9.72    4.72
   2  -2 -13    5.61    4.15
  -2  -2  13    6.70    4.42
  -2   2  13   12.33    4.19
  -2   2  13    3.01    3.83
   2   2 -13   12.60    3.23
   0  -2 -13   23.29    5.06
   0  -2 -13   20.84    3.86
   0  -2  13   15.92    4.73
   0  -2 -13   23.00    4.90
   0  -2  13   25.21    4.98
   0   2  13   24.54    5.30
   0   2 -13   30.12    4.22
   0   2  13   18.77    4.64
   2  -2  13   -1.66    3.90
   2  -2  13    2.16    4.01
  -2  -2 -13   10.25    4.48
  -2  -2 -13    0.89    4.44
  -2  -2 -13    7.81    4.90
  -2   2 -13   -1.30    3.98
   2   2  13    2.00    3.64
   2   2  13    3.10    4.09
  -2   2 -13   -0.39    3.00
  -4  -2 -13   92.46    9.01
  -4  -2 -13   98.66    9.55
   4  -2  13   82.95    8.99
  -4  -2 -13   88.29    8.60
   4  -2  13   93.03    8.64
   4   2  13  109.78    7.91
   4   2  13   87.96    8.30
  -4   2 -13   92.91    7.38
  -4   2 -13  101.52    6.85
   6  -2  13   13.04    5.15
  -6  -2 -13   12.27    5.10
  -6  -2 -13   11.28    4.90
   6   2  13    8.03    4.39
  -6   2 -13   13.25    3.84
   6   2  13   11.98    3.84
   7  -3 -13   78.86    7.29
  -7  -3  13  107.38   10.29
  -7  -3  13   82.18    9.15
   7  -3 -13   84.20    9.47
   7  -3 -13   71.99    8.50
  -7   3  13   89.58    9.40
  -7   3  13   96.32    9.24
   7   3 -13   98.08    7.58
   7   3 -13   98.49    9.71
   5  -3 -13   54.48    7.16
  -5  -3  13   58.79    7.79
  -5  -3  13   59.51    7.28
   5  -3 -13   59.87    5.78
   5  -3 -13   43.01    6.77
  -5   3  13   45.57    7.11
  -5   3  13   67.32    7.61
   5   3 -13   59.99    5.81
   5   3 -13   40.06    6.70
  -3  -3  13   -2.89    3.87
  -3  -3  13    3.91    4.04
   3  -3 -13    3.28    3.21
   3  -3 -13   -1.94    3.72
  -3   3  13    4.31    3.91
  -3   3  13    3.28    3.80
   3   3 -13    5.49    2.99
  -1  -3  13   87.92    8.48
   1  -3 -13   73.58    8.10
  -1  -3  13   76.08    8.49
   1  -3 -13   79.45    8.76
   1  -3 -13   76.99    6.85
  -1   3  13   86.33    8.14
   1   3 -13   96.12    6.45
   1   3 -13   81.05    9.26
  -1   3  13   81.95    7.89
  -1  -3 -13   45.57    6.49
   1  -3  13   42.13    6.14
  -1  -3 -13   64.19    7.43
   1  -3  13   32.05    5.82
  -1  -3 -13   50.70    6.63
  -1   3 -13   47.84    4.95
  -1   3 -13   46.06    7.46
   1   3  13   43.08    6.31
   1   3  13   48.34    6.22
  -3  -3 -13   29.08    5.54
   3  -3  13   32.84    5.53
   3  -3  13   28.00    6.01
  -3  -3 -13   35.30    6.06
  -3  -3 -13   32.96    5.87
  -3   3 -13   32.34    4.34
  -3   3 -13   35.40    6.74
   3   3  13   18.79    4.81
  -5  -3 -13    2.55    4.32
  -5  -3 -13    0.48    4.24
   5  -3  13    1.74    4.76
   5   3  13    4.12    4.13
  -5   3 -13   -3.74    3.33
   5   3  13    6.09    3.63
  -5   3 -13    1.87    5.60
   6  -4 -13   49.47    6.66
   6  -4 -13   52.16    7.52
   6  -4 -13   55.08    7.47
  -6  -4  13   44.90    6.76
  -6  -4  13   46.02    7.51
  -6   4  13   40.68    6.80
  -6   4  13   41.76    6.48
   6   4 -13   38.77    6.74
   6   4 -13   45.85    5.66
  -4  -4  13  103.03    9.24
   4  -4 -13   97.85    7.24
   4  -4 -13   88.65    9.32
   4  -4 -13  109.71    9.49
  -4  -4  13   98.16    9.69
  -4   4  13   98.94    9.13
  -4   4  13   92.08    9.10
   4   4 -13  110.74    9.38
   4   4 -13  111.24    6.84
   2  -4 -13   74.24    8.36
  -2  -4  13   71.78    8.27
  -2  -4  13   82.36    9.15
   2  -4 -13   82.19    6.96
  -2   4  13   81.02    8.28
  -2   4  13   83.57    8.10
   2   4 -13   76.71    5.87
   2   4 -13   70.65    8.78
   0  -4 -13   -4.40    5.24
   0  -4  13    2.08    4.02
   0  -4 -13   -5.53    3.14
   0  -4 -13   -2.22    3.72
   0  -4  13   -0.02    4.06
   0   4  13   -2.08    3.46
   0   4  13   -2.68    3.83
   0   4 -13    2.79    4.89
   0   4 -13    0.02    2.67
   2  -4  13   33.33    5.82
  -2  -4 -13   31.22    5.73
   2  -4  13   29.82    6.02
  -2   4 -13   32.70    6.39
   2   4  13   38.51    6.14
   2   4  13   19.35    5.02
  -2   4 -13   36.04    3.89
  -4  -4 -13   18.30    4.96
   4  -4  13   19.94    5.84
  -4  -4 -13   19.83    5.19
   4   4  13   23.78    5.12
  -4   4 -13   30.96    4.46
   4   4  13   24.73    4.65
  -4   4 -13   28.50    6.32
   5  -5 -13   55.24    7.17
  -5  -5  13   57.74    7.73
   5  -5 -13   46.12    6.91
  -5  -5  13   39.15    7.35
  -5   5  13   63.94    7.58
  -5   5  13   58.19    7.24
   5   5 -13   50.08    6.83
  -3  -5  13    5.44    4.87
   3  -5 -13    3.98    3.26
   3  -5 -13    1.35    4.16
  -3  -5  13   14.25    4.94
   3  -5 -13    4.97    4.54
  -3   5  13    9.38    4.53
  -3   5  13    2.37    3.85
   1  -5 -13  100.08    9.52
  -1  -5  13   84.34    8.50
   1  -5 -13  100.53    9.38
  -1  -5  13   98.95    9.48
   1  -5 -13   96.19    7.32
   1   5 -13   97.10    9.96
  -1   5  13   85.34    8.94
  -1   5  13   90.42    8.85
  -1  -5 -13  154.13    9.42
  -1  -5 -13  137.31   10.93
   1  -5  13  151.31   11.50
   1  -5  13  150.05   10.64
   1   5  13  135.48   10.13
   1   5  13  138.54   10.24
  -1   5 -13  148.43   11.68
  -3  -5 -13   14.85    5.45
  -3  -5 -13   19.75    5.38
   3  -5  13   15.31    5.40
   3   5  13   16.61    4.67
   3   5  13   21.77    5.52
  -3   5 -13   20.54    5.97
  -4  -6  13   60.34    7.65
  -4  -6  13   63.58    8.60
   4  -6 -13   69.17    8.79
   4  -6 -13   58.09    7.59
  -4   6  13   77.15    8.14
  -4   6  13   75.81    8.76
   2  -6 -13   81.67    9.10
   2  -6 -13   80.52    6.88
  -2  -6  13   75.54    8.95
   2  -6 -13   78.22    9.31
  -2  -6  13   95.49    9.26
  -2   6  13   85.80    8.20
  -2   6  13   80.97    8.55
   2   6 -13   79.04    9.49
   0  -6 -13   26.65    4.46
   0  -6  13   27.02    6.19
   0  -6 -13   17.52    5.31
   0  -6  13   30.30    6.02
   0  -6 -13   13.60    5.49
   0   6  13   21.32    5.05
   0   6  13   24.13    5.60
   0   6 -13   20.99    6.16
  -2  -6 -13   27.01    5.21
  -2  -6 -13   21.50    5.47
   2  -6  13   15.72    5.89
   2   6  13   17.28    4.48
   2   6  13   23.74    5.24
  -2   6 -13   19.27    6.17
  -6   0  14   19.86    5.84
   6   0 -14   19.54    5.54
   6   0 -14   28.93    6.52
  -4   0  14  239.71   14.57
   4   0 -14  233.41   14.03
  -4   0  14  246.41   14.84
  -2   0  14   29.79    5.81
   2   0 -14   31.79   10.82
   2   0 -14   21.97    4.36
  -2   0  14   27.01    6.04
   0   0  14   29.11    5.80
   0   0 -14   30.96    5.15
   0   0 -14   38.52    6.65
   0   0  14   29.85    5.99
   2   0  14   56.86    7.50
  -2   0 -14   73.66    8.91
   2   0  14   74.95    8.25
   4   0  14   31.44    5.83
  -4   0 -14   32.27    6.73
  -4   0 -14   24.32    6.17
  -5  -1  14    2.19    4.59
  -5  -1  14   -3.93    4.50
   5  -1 -14    1.95    5.10
   5  -1 -14    1.38    4.57
  -5   1  14    7.76    4.88
   5   1 -14    2.82    3.52
  -5   1  14    3.06    5.03
   5   1 -14    4.81    5.37
  -3  -1  14   47.90    7.02
   3  -1 -14   48.49    6.80
  -3  -1  14   45.05    7.22
  -3   1  14   52.40    7.19
   3   1 -14   53.04    6.04
  -3   1  14   63.51    7.63
  -1  -1  14   98.96    9.50
   1  -1 -14  114.04    9.71
  -1  -1  14   88.04    9.37
   1  -1 -14   97.14    9.13
  -1   1  14   94.13    9.32
  -1   1  14   92.29    9.02
   1   1 -14  102.10   11.35
   1   1 -14  107.53    7.75
  -1  -1 -14   42.55    6.66
  -1  -1 -14   37.75    6.44
  -1  -1 -14   45.37    6.69
   1  -1  14   52.28    7.14
   1  -1  14   45.68    6.91
   1   1  14   37.80    6.48
   1   1  14   36.97    6.35
  -1   1 -14   59.59    6.17
  -1   1 -14   42.36    9.16
  -3  -1 -14    8.33    5.09
   3  -1  14    3.48    4.55
  -3  -1 -14   19.73    5.78
   3  -1  14    3.86    4.51
  -3  -1 -14   -0.37    4.40
  -3   1 -14   11.45    3.99
   3   1  14    9.69    4.73
   3   1  14    8.41    4.56
   4  -2 -14   54.22    6.84
  -4  -2  14   44.95    7.29
  -4  -2  14   41.23    7.23
  -4   2  14   38.73    6.94
  -4   2  14   47.31    6.93
   4   2 -14   52.84    5.52
  -2  -2  14   24.91    5.44
   2  -2 -14   31.37    6.28
  -2  -2  14   26.64    6.10
   2  -2 -14   25.93    4.90
   2  -2 -14   28.11    5.55
   2   2 -14   28.82    4.55
   2   2 -14   18.86    6.26
  -2   2  14   19.62    5.39
  -2   2  14   18.64    5.24
   0  -2  14    4.97    4.79
   0  -2 -14   10.84    4.58
   0  -2 -14    7.43    4.71
   0  -2  14   10.00    4.33
   0  -2 -14    0.08    5.27
   0   2  14   13.30    5.11
   0   2  14    5.20    4.18
   0   2 -14    2.33    5.49
   0   2 -14    9.87    3.51
  -2  -2 -14   41.42    6.70
  -2  -2 -14   55.22    7.37
  -2  -2 -14   48.12    6.85
   2  -2  14   45.40    6.98
   2  -2  14   36.53    6.64
  -2   2 -14   58.87    8.45
   2   2  14   44.19    6.51
   2   2  14   43.55    6.28
  -2   2 -14   48.33    5.66
  -3  -3  14    9.97    5.54
   3  -3 -14    2.91    4.71
   3  -3 -14   13.43    4.02
  -3  -3  14    8.84    4.93
  -3   3  14    6.66    4.74
   3   3 -14   11.35    3.71
  -3   3  14    2.87    4.78
   1  -3 -14   16.84    4.45
  -1  -3  14    8.38    4.67
   1  -3 -14   10.63    5.71
  -1  -3  14   12.45    5.29
   1  -3 -14   18.35    5.16
  -1   3  14   16.78    5.29
   1   3 -14   12.58    5.73
   1   3 -14   12.08    3.56
  -1   3  14    8.30    4.48
  -1  -3 -14   85.54    9.00
  -1  -3 -14   94.95    9.44
  -1  -3 -14  103.32   10.51
   1  -3  14   94.87    9.97
   1  -3  14   78.91    8.99
   1   3  14   78.15    8.34
  -1   3 -14   84.12   10.19
  -1   3 -14   89.85    7.07
   1   3  14   83.87    8.71
  -2  -4  14   14.33    5.77
   2  -4 -14   10.72    5.22
   2  -4 -14   14.60    6.12
   2  -4 -14    8.34    4.03
  -2  -4  14    8.24    5.26
  -2   4  14    9.85    4.70
  -2   4  14   20.83    5.33
   2   4 -14    7.87    5.46
   0  -4 -14   -3.91    4.19
   0  -4  14    6.23    4.41
   0  -4 -14    4.22    3.89
   0   4  14    2.49    4.63
   0   4 -14    6.36    5.82
   0   0   0    0.00    0.00
;
_shelx_hkl_checksum              30317
loop_
_space_group_symop_operation_xyz
'x, y, z'
'-x, y, -z+1/2'
'x+1/2, y+1/2, z'
'-x+1/2, y+1/2, -z+1/2'
'-x, -y, -z'
'x, -y, z-1/2'
'-x+1/2, -y+1/2, -z'
'x+1/2, -y+1/2, z-1/2'
loop_
_atom_site_label
_atom_site_type_symbol
_atom_site_fract_x
_atom_site_fract_y
_atom_site_fract_z
_atom_site_U_iso_or_equiv
_atom_site_adp_type
_atom_site_occupancy
_atom_site_site_symmetry_order
_atom_site_calc_flag
Ce1 Ce 0.18748(2) 0.45210(2) 0.15748(2) 0.00719(6) Uani 1 1 d
S1 S 0.13505(6) 0.70251(7) 0.36287(7) 0.00689(17) Uani 1 1 d
O11 O 0.03312(17) 0.2488(2) -0.1159(2) 0.0109(5) Uani 1 1 d
O12 O 0.17733(18) 0.6595(2) 0.4752(2) 0.0108(5) Uani 1 1 d
O13 O 0.11740(19) 0.6117(2) 0.2766(2) 0.0142(6) Uani 1 1 d
O14 O 0.19196(19) 0.7972(2) 0.3180(2) 0.0155(6) Uani 1 1 d
S2 S -0.07816(6) 0.34703(7) 0.07929(7) 0.00835(18) Uani 1 1 d
O21 O -0.07504(18) 0.2205(2) 0.0386(2) 0.0130(5) Uani 1 1 d
O22 O 0.01844(19) 0.3809(2) 0.1221(2) 0.0187(6) Uani 1 1 d
O23 O -0.14730(18) 0.3456(2) 0.1703(2) 0.0162(6) Uani 1 1 d
O24 O -0.1133(2) 0.4142(2) -0.0210(2) 0.0237(7) Uani 1 1 d
S3 S 0.37337(6) 0.51337(7) 0.42462(7) 0.00775(17) Uani 1 1 d
O31 O 0.42017(18) 0.6317(2) 0.4414(2) 0.0114(5) Uani 1 1 d
O32 O 0.45789(17) 0.4318(2) 0.4052(2) 0.0089(5) Uani 1 1 d
O33 O 0.32514(19) 0.4815(2) 0.5283(2) 0.0148(6) Uani 1 1 d
O34 O 0.31473(19) 0.5201(2) 0.3156(2) 0.0155(6) Uani 1 1 d
B1 B -0.0003(3) 0.1690(3) -0.0279(3) 0.0086(8) Uani 1 1 d
loop_
_atom_site_aniso_label
_atom_site_aniso_U_11
_atom_site_aniso_U_22
_atom_site_aniso_U_33
_atom_site_aniso_U_23
_atom_site_aniso_U_13
_atom_site_aniso_U_12
Ce1 0.00742(10) 0.00795(10) 0.00621(10) -0.00043(8) 0.00046(7) 0.00050(8)
S1 0.0074(4) 0.0061(4) 0.0073(4) -0.0004(3) 0.0011(3) 0.0004(3)
O11 0.0081(12) 0.0113(12) 0.0131(13) 0.0045(10) -0.0009(10) -0.0038(10)
O12 0.0116(13) 0.0113(12) 0.0095(12) 0.0022(10) 0.0006(10) 0.0011(10)
O13 0.0140(13) 0.0136(13) 0.0146(13) -0.0071(11) -0.0017(11) 0.0045(11)
O14 0.0157(14) 0.0148(14) 0.0162(14) 0.0051(11) 0.0025(11) -0.0049(11)
S2 0.0091(4) 0.0076(4) 0.0084(4) -0.0008(3) 0.0009(3) 0.0008(3)
O21 0.0118(13) 0.0078(12) 0.0204(14) -0.0026(10) 0.0088(11) -0.0003(10)
O22 0.0130(14) 0.0242(16) 0.0190(15) -0.0067(12) 0.0022(11) -0.0074(12)
O23 0.0143(14) 0.0192(14) 0.0159(14) -0.0080(11) 0.0069(11) -0.0040(11)
O24 0.0322(17) 0.0209(15) 0.0179(15) 0.0066(12) 0.0000(13) 0.0123(13)
S3 0.0069(4) 0.0065(4) 0.0097(4) -0.0012(3) -0.0007(3) 0.0008(3)
O31 0.0147(13) 0.0050(12) 0.0136(13) -0.0019(10) -0.0064(10) -0.0001(10)
O32 0.0088(12) 0.0075(12) 0.0107(12) 0.0016(9) 0.0024(10) 0.0028(9)
O33 0.0145(13) 0.0137(14) 0.0170(14) 0.0024(10) 0.0067(11) 0.0042(11)
O34 0.0159(14) 0.0135(14) 0.0162(14) -0.0024(10) -0.0062(11) 0.0024(11)
B1 0.0086(19) 0.0071(18) 0.0098(19) 0.0025(15) -0.0010(16) -0.0031(15)
loop_
_atom_type_symbol
_atom_type_description
_atom_type_scat_dispersion_real
_atom_type_scat_dispersion_imag
_atom_type_scat_source
B B 0.0013 0.0007 'International Tables Vol C Tables 4.2.6.8 and 6.1.1.4'
O O 0.0106 0.0060 'International Tables Vol C Tables 4.2.6.8 and 6.1.1.4'
S S 0.1246 0.1234 'International Tables Vol C Tables 4.2.6.8 and 6.1.1.4'
Ce Ce -0.2486 2.6331 'International Tables Vol C Tables 4.2.6.8 and 6.1.1.4'
loop_
_geom_angle_atom_site_label_1
_geom_angle_atom_site_label_2
_geom_angle_atom_site_label_3
_geom_angle
_geom_angle_site_symmetry_1
_geom_angle_site_symmetry_3
O24 Ce1 O23 138.77(9) 5_565 2
O24 Ce1 O12 78.05(9) 5_565 6_565
O23 Ce1 O12 114.49(9) 2 6_565
O24 Ce1 O14 144.35(9) 5_565 4_545
O23 Ce1 O14 73.87(8) 2 4_545
O12 Ce1 O14 73.14(8) 6_565 4_545
O24 Ce1 O22 75.53(10) 5_565 .
O23 Ce1 O22 72.44(9) 2 .
O12 Ce1 O22 71.56(8) 6_565 .
O14 Ce1 O22 113.51(9) 4_545 .
O24 Ce1 O13 72.99(9) 5_565 .
O23 Ce1 O13 79.85(9) 2 .
O12 Ce1 O13 147.35(8) 6_565 .
O14 Ce1 O13 139.22(8) 4_545 .
O22 Ce1 O13 86.68(9) . .
O24 Ce1 O34 120.36(9) 5_565 .
O23 Ce1 O34 76.74(9) 2 .
O12 Ce1 O34 139.49(8) 6_565 .
O14 Ce1 O34 73.42(8) 4_545 .
O22 Ce1 O34 144.38(8) . .
O13 Ce1 O34 70.52(8) . .
O24 Ce1 O33 74.81(9) 5_565 6_565
O23 Ce1 O33 145.88(9) 2 6_565
O12 Ce1 O33 71.40(8) 6_565 6_565
O14 Ce1 O33 76.40(8) 4_545 6_565
O22 Ce1 O33 136.27(8) . 6_565
O13 Ce1 O33 113.98(8) . 6_565
O34 Ce1 O33 79.06(8) . 6_565
O13 S1 O12 112.58(15) . .
O13 S1 O14 112.43(15) . .
O12 S1 O14 111.63(15) . .
O13 S1 O11 104.74(14) . 6_566
O12 S1 O11 107.81(14) . 6_566
O14 S1 O11 107.15(15) . 6_566
B1 O11 S1 131.9(2) . 6_565
S1 O12 Ce1 157.48(15) . 6_566
S1 O13 Ce1 147.44(16) . .
S1 O14 Ce1 152.51(16) . 4
O24 S2 O22 112.15(18) . .
O24 S2 O23 111.52(17) . .
O22 S2 O23 113.50(16) . .
O24 S2 O21 106.97(16) . .
O22 S2 O21 108.48(16) . .
O23 S2 O21 103.61(15) . .
B1 O21 S2 125.8(2) . .
S2 O22 Ce1 169.28(17) . .
S2 O23 Ce1 140.25(16) . 2
S2 O24 Ce1 168.17(19) . 5_565
O33 S3 O34 117.04(16) . .
O33 S3 O31 110.10(15) . .
O34 S3 O31 105.69(15) . .
O33 S3 O32 110.92(14) . .
O34 S3 O32 107.56(15) . .
O31 S3 O32 104.70(14) . .
B1 O31 S3 129.3(2) 4 .
B1 O32 S3 133.3(2) 8_556 .
S3 O33 Ce1 141.47(15) . 6_566
S3 O34 Ce1 155.91(16) . .
O21 B1 O11 111.3(3) . .
O21 B1 O32 108.9(3) . 8_455
O11 B1 O32 106.0(3) . 8_455
O21 B1 O31 107.4(3) . 4_545
O11 B1 O31 112.4(3) . 4_545
O32 B1 O31 110.8(3) 8_455 4_545
loop_
_geom_bond_atom_site_label_1
_geom_bond_atom_site_label_2
_geom_bond_distance
_geom_bond_site_symmetry_2
Ce1 O24 2.366(3) 5_565
Ce1 O23 2.397(2) 2
Ce1 O12 2.426(2) 6_565
Ce1 O14 2.440(3) 4_545
Ce1 O22 2.472(3) .
Ce1 O13 2.510(2) .
Ce1 O34 2.543(3) .
Ce1 O33 2.579(2) 6_565
S1 O13 1.441(2) .
S1 O12 1.450(2) .
S1 O14 1.454(3) .
S1 O11 1.542(2) 6_566
O11 B1 1.452(4) .
O11 S1 1.542(2) 6_565
O12 Ce1 2.426(2) 6_566
O14 Ce1 2.440(3) 4
S2 O24 1.431(3) .
S2 O22 1.437(3) .
S2 O23 1.444(3) .
S2 O21 1.532(2) .
O21 B1 1.439(5) .
O23 Ce1 2.397(2) 2
O24 Ce1 2.367(3) 5_565
S3 O33 1.431(3) .
S3 O34 1.431(3) .
S3 O31 1.516(2) .
S3 O32 1.522(2) .
O31 B1 1.488(5) 4
O32 B1 1.484(4) 8_556
O33 Ce1 2.579(2) 6_566
B1 O32 1.484(4) 8_455
B1 O31 1.488(4) 4_545
