#------------------------------------------------------------------------------
#$Date: 2019-11-08 00:30:46 +0200 (Fri, 08 Nov 2019) $
#$Revision: 224274 $
#$URL: file:///home/coder/svn-repositories/cod/cif/7/04/92/7049221.cif $
#------------------------------------------------------------------------------
#
# This file is available in the Crystallography Open Database (COD),
# http://www.crystallography.net/
#
# All data on this site have been placed in the public domain by the
# contributors.
#
data_7049221
loop_
_publ_author_name
'Netzsch, Philip'
'H\"ammer, Matthias'
'Gross, Peter'
'Bariss, Harijs'
'Block, Theresa'
'Heletta, Lukas'
'P\"ottgen, Rainer'
'Bruns, J\"orn'
'Huppertz, Hubert'
'H\"oppe, Henning A'
_publ_section_title
;
 RE<sub>2</sub>[B<sub>2</sub>(SO<sub>4</sub>)<sub>6</sub>] (RE = Y, La-Nd,
 Sm, Eu, Tb-Lu): a silicate-analogous host structure with weak
 coordination behaviour.
;
_journal_issue                   13
_journal_name_full
'Dalton transactions (Cambridge, England : 2003)'
_journal_page_first              4387
_journal_page_last               4397
_journal_paper_doi               10.1039/c9dt00445a
_journal_volume                  48
_journal_year                    2019
_chemical_formula_sum            'B2 O24 Pr2 S6'
_chemical_formula_weight         879.80
_space_group_crystal_system      monoclinic
_space_group_IT_number           15
_space_group_name_Hall           '-C 2yc'
_space_group_name_H-M_alt        'C 1 2/c 1'
_symmetry_space_group_name_Hall  '-C 2yc'
_symmetry_space_group_name_H-M   'C 1 2/c 1'
_audit_creation_method           SHELXL-2014/7
_cell_angle_alpha                90
_cell_angle_beta                 93.638(2)
_cell_angle_gamma                90
_cell_formula_units_Z            4
_cell_length_a                   13.7141(11)
_cell_length_b                   11.5305(9)
_cell_length_c                   11.2643(9)
_cell_measurement_reflns_used    2565
_cell_measurement_temperature    300(2)
_cell_measurement_theta_max      30.555
_cell_measurement_theta_min      2.310
_cell_volume                     1777.6(2)
_computing_structure_refinement  'SHELXL-2014/7 (Sheldrick, 2014)'
_diffrn_ambient_temperature      300(2)
_diffrn_measured_fraction_theta_full 1.000
_diffrn_measured_fraction_theta_max 0.997
_diffrn_measurement_device_type  'Bruker D8 Venture'
_diffrn_measurement_method       'omega scan'
_diffrn_radiation_monochromator  graphite
_diffrn_radiation_source         'fine-focus sealed tube'
_diffrn_radiation_type           MoK\a
_diffrn_radiation_wavelength     0.71073
_diffrn_reflns_av_R_equivalents  0.0247
_diffrn_reflns_av_unetI/netI     0.0137
_diffrn_reflns_Laue_measured_fraction_full 1.000
_diffrn_reflns_Laue_measured_fraction_max 0.997
_diffrn_reflns_limit_h_max       19
_diffrn_reflns_limit_h_min       -19
_diffrn_reflns_limit_k_max       15
_diffrn_reflns_limit_k_min       -16
_diffrn_reflns_limit_l_max       16
_diffrn_reflns_limit_l_min       -16
_diffrn_reflns_number            24061
_diffrn_reflns_point_group_measured_fraction_full 1.000
_diffrn_reflns_point_group_measured_fraction_max 0.997
_diffrn_reflns_theta_full        25.242
_diffrn_reflns_theta_max         30.555
_diffrn_reflns_theta_min         2.310
_exptl_absorpt_coefficient_mu    6.252
_exptl_absorpt_correction_type   multi-scan
_exptl_absorpt_process_details
; 
 multi-scan absorption correction using SADABS 
(G. M. Sheldrick, (1996). SADABS. Program for Empirical 
Absorption Correction. University of G\"ottingen, Germany.)
;
_exptl_crystal_colour            green
_exptl_crystal_density_diffrn    3.287
_exptl_crystal_description       block
_exptl_crystal_F_000             1664
_exptl_crystal_size_max          0.24
_exptl_crystal_size_mid          0.15
_exptl_crystal_size_min          0.10
_exptl_transmission_factor_max   0.7461
_exptl_transmission_factor_min   0.6174
_refine_diff_density_max         0.582
_refine_diff_density_min         -0.541
_refine_diff_density_rms         0.127
_refine_ls_extinction_coef       0.00090(5)
_refine_ls_extinction_expression Fc^*^=kFc[1+0.001xFc^2^\l^3^/sin(2\q)]^-1/4^
_refine_ls_extinction_method     'SHELXL-2014/7 (Sheldrick 2014'
_refine_ls_goodness_of_fit_ref   1.109
_refine_ls_hydrogen_treatment    undef
_refine_ls_matrix_type           full
_refine_ls_number_parameters     155
_refine_ls_number_reflns         2719
_refine_ls_number_restraints     0
_refine_ls_restrained_S_all      1.109
_refine_ls_R_factor_all          0.0160
_refine_ls_R_factor_gt           0.0140
_refine_ls_shift/su_max          0.002
_refine_ls_shift/su_mean         0.000
_refine_ls_structure_factor_coef Fsqd
_refine_ls_weighting_details
'w=1/[\s^2^(Fo^2^)+(0.0162P)^2^+3.7272P] where P=(Fo^2^+2Fc^2^)/3'
_refine_ls_weighting_scheme      calc
_refine_ls_wR_factor_gt          0.0337
_refine_ls_wR_factor_ref         0.0343
_reflns_Friedel_coverage         0.000
_reflns_number_gt                2565
_reflns_number_total             2719
_reflns_threshold_expression     'I > 2\s(I)'
_cod_data_source_file            c9dt00445a10.cif
_cod_data_source_block           mo_pn38_2_0m
_cod_depositor_comments
'Adding full bibliography for 7049219--7049233.cif.'
_cod_database_code               7049221
_shelx_shelxl_version_number     2014/7
_shelx_space_group_comment
;
The symmetry employed for this shelxl refinement is uniquely defined
by the following loop, which should always be used as a source of
symmetry information in preference to the above space-group names.
They are only intended as comments.
;
_shelx_res_file
;

    mo_pn38_2_0m.res created by SHELXL-2014/7


TITL mo_pn38_2_0m_a.res in C2/c
REM Old TITL mo_pn38_2_0m in C2/c

REM SHELXT solution in C2/c
REM R1 0.031,  Rweak 0.003,  Alpha 0.038,  Orientation as input
REM Formula found by SHELXT:  B O12 S3 Pr

CELL  0.71073  13.7141  11.5305  11.2643   90.000   93.638   90.000
ZERR    4.000   0.0011   0.0009   0.0009    0.000    0.002    0.000
LATT  7
SYMM -X, Y, 1/2-Z
SFAC B O S PR
UNIT 8 96 24 8
TEMP 27.050
L.S. 10
BOND $H
LIST 6
FMAP 2
PLAN 20
ACTA
WGHT    0.016200    3.727200
EXTI    0.000897
FVAR       0.17777
PR01  4    0.312564    0.452039    0.343020    11.00000    0.00576    0.00621 =
         0.00459    0.00024    0.00044   -0.00038
S1    3    0.635840    0.702426    0.362384    11.00000    0.00561    0.00500 =
         0.00549   -0.00023    0.00059    0.00049
S2    3    0.626903    0.986717    0.575784    11.00000    0.00520    0.00575 =
         0.00733   -0.00084   -0.00073    0.00117
S3    3    0.421936    0.652390    0.579494    11.00000    0.00713    0.00617 =
         0.00631    0.00093    0.00124   -0.00073
O11   2    0.618428    0.611294    0.275406    11.00000    0.01225    0.01211 =
         0.01486   -0.00809   -0.00145    0.00285
O12   2    0.692505    0.797223    0.317392    11.00000    0.01417    0.01395 =
         0.01374    0.00455    0.00124   -0.00626
O13   2    0.678073    0.659080    0.475218    11.00000    0.01125    0.01249 =
         0.00929    0.00362   -0.00069    0.00198
O14   2    0.533530    0.750830    0.383267    11.00000    0.00637    0.01104 =
         0.01046   -0.00445   -0.00061    0.00328
O21   2    0.685301    0.980151    0.685466    11.00000    0.01195    0.01226 =
         0.01373   -0.00305   -0.00714    0.00168
O22   2    0.675596    1.018813    0.471513    11.00000    0.01339    0.01377 =
         0.01531    0.00230    0.00757    0.00452
O23   2    0.580336    0.868205    0.558760    11.00000    0.01317    0.00515 =
         0.01308   -0.00062   -0.00580    0.00008
O24   2    0.458053    0.931962    0.404659    11.00000    0.00731    0.00719 =
         0.00971    0.00058    0.00156    0.00301
O31   2    0.518879    0.618733    0.622335    11.00000    0.00938    0.02591 =
         0.01867    0.00753    0.00221    0.00724
O32   2    0.386538    0.585253    0.477991    11.00000    0.03128    0.02010 =
         0.01612   -0.00735    0.00042   -0.01251
O33   2    0.352649    0.653785    0.671278    11.00000    0.01292    0.01797 =
         0.01465    0.00680    0.00791    0.00199
O34   2    0.424610    0.779058    0.538865    11.00000    0.01267    0.00620 =
         0.01875    0.00337    0.00875    0.00119
B1    1    0.499950    0.830785    0.471619    11.00000    0.00662    0.00565 =
         0.00797    0.00010    0.00060    0.00039
HKLF 4

REM  mo_pn38_2_0m_a.res in C2/c
REM R1 =  0.0140 for    2565 Fo > 4sig(Fo)  and  0.0160 for all    2719 data
REM    155 parameters refined using      0 restraints

END

WGHT      0.0135      3.6441

REM Highest difference peak  0.582,  deepest hole -0.541,  1-sigma level  0.127
Q1    1   0.3902  0.6603  0.6399  11.00000  0.05    0.58
Q2    1   0.6440  0.9915  0.6404  11.00000  0.05    0.56
Q3    1   0.4273  0.9649  0.4124  11.00000  0.05    0.53
Q4    1   0.6503  1.0016  0.5262  11.00000  0.05    0.49
Q5    1   0.6037  0.9272  0.5662  11.00000  0.05    0.48
Q6    1   0.5820  0.7435  0.3818  11.00000  0.05    0.48
Q7    1   0.6609  0.7517  0.3393  11.00000  0.05    0.44
Q8    1   0.6883  0.9513  0.6808  11.00000  0.05    0.42
Q9    1   0.5373  0.7790  0.3310  11.00000  0.05    0.40
Q10   1   0.3270  0.6615  0.6600  11.00000  0.05    0.40
Q11   1   0.4174  0.8150  0.5652  11.00000  0.05    0.40
Q12   1   0.6557  0.6783  0.4157  11.00000  0.05    0.39
Q13   1   0.4857  0.9590  0.4057  11.00000  0.05    0.39
Q14   1   0.4561  0.9243  0.3629  11.00000  0.05    0.39
Q15   1   0.3886  0.5526  0.4586  11.00000  0.05    0.37
Q16   1   0.6501  0.9784  0.7143  11.00000  0.05    0.37
Q17   1   0.5234  0.7789  0.4186  11.00000  0.05    0.36
Q18   1   0.6779  0.8050  0.3844  11.00000  0.05    0.36
Q19   1   0.4574  0.7652  0.6002  11.00000  0.05    0.36
Q20   1   0.3615  0.6420  0.7238  11.00000  0.05    0.36
;
_shelx_res_checksum              45548
_shelx_hkl_file
;
   2   0   0  798.42   17.10
   2   0   0  773.22   16.90
   2   0   0  750.82   16.90
   2   0   0  768.02   16.50
   2   0   0  791.22   17.00
  -2   0   0  798.42   17.00
  -2   0   0  808.42   16.50
  -2   0   0  772.42   16.90
  -2   0   0  786.12   17.00
  -2   0   0  786.02   17.00
   4   0   0 2678.63   57.99
   4   0   0 2696.43   57.79
  -4   0   0 2815.02   58.09
   4   0   0 2777.62   57.99
   4   0   0 2808.52   57.09
   4   0   0 2775.32   58.19
  -4   0   0 2678.73   57.99
  -4   0   0 2787.62   57.39
  -4   0   0 2794.62   56.99
  -4   0   0 2698.43   57.79
  -4   0   0 2749.52   58.19
   6   0   0 3288.97   70.79
  -6   0   0 3337.47   68.89
  -6   0   0 3230.38   70.29
  -6   0   0 3228.08   70.69
   6   0   0 3375.96   70.49
   6   0   0 3269.57   70.09
   6   0   0 3285.77   70.49
  -6   0   0 3408.66   69.69
   6   0   0 3378.56   69.19
  -8   0   0 3055.99   66.59
   8   0   0 3076.99   66.09
  -8   0   0 2996.20   63.69
   8   0   0 3052.79   66.09
  -8   0   0 2929.71   65.69
  -8   0   0 3149.88   65.09
  -8   0   0 2978.40   66.09
   8   0   0 3003.50   66.59
   8   0   0 3057.89   64.19
   8   0   0 3085.79   65.69
 -10   0   0 1259.17   29.10
 -10   0   0 1244.58   27.20
  10   0   0 1232.38   30.90
  10   0   0 1222.48   30.20
  10   0   0 1250.77   30.30
  10   0   0 1220.78   27.80
  10   0   0 1217.68   29.80
 -10   0   0 1173.18   30.50
  10   0   0 1200.28   29.90
 -10   0   0 1217.68   29.90
 -10   0   0 1224.38   30.30
 -12   0   0   35.30    4.80
 -12   0   0   28.50    4.30
  12   0   0   34.60    4.10
  12   0   0   26.70    4.50
 -12   0   0   31.80    4.60
  12   0   0   27.30    4.30
  14   0   0  389.26   16.00
  14   0   0  395.76   15.00
 -14   0   0  401.46   15.10
 -14   0   0  397.86   16.10
  14   0   0  380.26   14.80
 -14   0   0  378.36   15.10
 -16   0   0 2444.86   61.69
  16   0   0 2572.74   60.19
  16   0   0 2442.86   62.09
 -16   0   0 2549.84   64.99
  18   0   0 1528.65   44.60
 -18   0   0 1509.55   43.90
 -18   0   0 1517.65   42.50
   1  -1   0  470.15   12.50
  -1  -1   0  619.54   13.00
   1  -1   0  631.44   13.10
   1  -1   0  615.74   13.10
  -1  -1   0  608.24   12.30
   1  -1   0  605.94   12.90
  -1  -1   0  549.05   12.30
  -1  -1   0  620.94   12.60
  -1   1   0  571.04   12.90
  -3  -1   0 3252.57   63.69
   3  -1   0 2820.72   60.49
   3  -1   0 3359.26   61.99
  -3  -1   0 2678.03   60.09
  -3  -1   0 2855.91   60.09
   3  -1   0 2898.91   60.89
  -3  -1   0 2901.41   60.79
   3  -1   0 2830.32   60.49
  -3  -1   0 3119.29   60.29
   3  -1   0 2905.61   60.99
   3  -1   0 2819.42   60.69
   3   1   0 2945.51   60.89
   3   1   0 2806.82   59.99
   3   1   0 2769.32   60.09
  -3   1   0 2833.22   60.69
  -3   1   0 2847.02   60.89
  -3   1   0 2856.71   60.29
  -3   1   0 2891.41   60.39
   3   1   0 2743.73   60.09
  -5  -1   0 1710.03   39.30
  -5  -1   0 1874.31   39.70
   5  -1   0 1866.71   39.40
   5  -1   0 1841.12   39.30
  -5  -1   0 1805.42   38.90
   5  -1   0 1829.52   39.60
  -5  -1   0 1819.62   37.40
   5  -1   0 1808.92   38.80
   5   1   0 1776.92   38.90
  -5   1   0 1812.42   38.60
  -5   1   0 1848.62   39.90
   5   1   0 1822.52   38.70
   5   1   0 1808.62   38.90
   5   1   0 1768.52   37.50
  -5   1   0 1823.12   38.80
  -5   1   0 1828.92   39.70
   5   1   0 1573.04   40.30
  -7  -1   0  307.47    9.80
   7  -1   0  309.37    8.90
   7  -1   0  310.37    9.60
  -7  -1   0  318.27    8.70
   7  -1   0  314.57   10.00
   7  -1   0  302.17    9.80
  -7  -1   0  307.57    7.40
  -7  -1   0  315.27    9.30
   7  -1   0  293.27    9.70
  -7  -1   0  303.47    9.60
  -7  -1   0  304.57    9.40
   7   1   0  308.37    9.30
  -7   1   0  320.17    9.20
  -7   1   0  281.27    9.50
  -7   1   0  330.37   10.10
   7   1   0  323.17    9.40
   7   1   0  312.77   10.10
  -7   1   0  316.47    8.60
  -7   1   0  312.67   10.10
   7   1   0  312.97    7.70
   7   1   0  318.07    9.10
  -9  -1   0  178.58    6.60
   9  -1   0  172.78    7.70
   9  -1   0  165.48    7.30
  -9  -1   0  181.78    7.40
   9  -1   0  172.98    6.50
  -9  -1   0  167.38    7.40
   9  -1   0  166.18    7.40
   9  -1   0  161.08    7.50
  -9  -1   0  180.28    7.10
  -9  -1   0  174.58    4.80
   9  -1   0  164.68    7.60
  -9   1   0  175.68    7.50
  -9   1   0  175.78    7.70
   9   1   0  174.58    6.90
   9   1   0  177.28    7.50
  -9   1   0  183.58    8.10
   9   1   0  175.98    7.90
   9   1   0  171.68    7.20
   9   1   0  172.88    5.30
   9   1   0  165.68    7.20
  -9   1   0  163.88    6.80
  11  -1   0 1906.61   42.60
  11  -1   0 1850.11   45.00
 -11  -1   0 1920.11   44.30
 -11  -1   0 1848.42   44.60
  11  -1   0 1961.00   46.40
 -11  -1   0 1919.01   42.90
 -11  -1   0 1844.82   43.70
  11   1   0 1877.11   45.60
 -11   1   0 1879.31   44.50
  11   1   0 1840.72   44.00
 -11   1   0 1882.51   45.60
 -11   1   0 1899.41   41.70
 -11   1   0 1914.11   45.00
  11   1   0 1944.21   43.90
  13  -1   0  665.13   20.20
  13  -1   0  651.13   18.10
 -13  -1   0  634.44   20.40
  13  -1   0  661.53   21.00
 -13  -1   0  675.93   20.20
 -13  -1   0  658.43   19.60
  13  -1   0  651.93   20.40
  13   1   0  651.43   21.30
  13   1   0  641.64   19.30
  13   1   0  643.74   19.50
 -13   1   0  667.83   20.40
 -13   1   0  648.04   21.30
 -13   1   0  661.23   20.70
  15  -1   0  120.09    8.60
  15  -1   0  105.89   10.80
 -15  -1   0  133.89   10.40
 -15  -1   0  118.79    9.60
  15  -1   0  101.49   12.80
  15  -1   0  118.39   10.40
  15   1   0  118.19   10.00
 -15   1   0  111.79   10.80
  15   1   0  121.19   11.00
 -15   1   0  135.19   10.50
  15   1   0  139.89   11.10
  17  -1   0   24.30    7.80
  17  -1   0   18.50    7.90
 -17  -1   0   21.00    7.00
 -17  -1   0   17.10    6.90
  17   1   0   20.50    8.00
 -17   1   0   22.20    7.20
 -17   1   0   18.00    7.10
 -19  -1   0  545.05   24.40
  19  -1   0  534.85   25.40
 -19  -1   0  542.85   23.30
 -19   1   0  566.04   24.50
 -19   1   0  525.25   25.60
  19   1   0  558.74   26.00
   0  -2   0 3072.99   65.19
   0  -2   0 3253.37   64.49
   0  -2   0 3122.79   67.59
   0  -2   0 3161.38   66.09
   0  -2   0 3028.30   63.89
   0  -2   0 3068.59   64.99
   0  -2   0 3154.88   65.99
   0  -2   0 3012.60   65.19
   0   2   0 2639.84   63.39
   0   2   0 3217.28   63.49
   0   2   0 2935.01   64.49
   2  -2   0 3660.53   70.19
   2  -2   0 3020.30   65.89
  -2  -2   0 3513.75   68.69
   2  -2   0 2885.61   66.09
  -2  -2   0 3485.55   67.29
   2  -2   0 2979.70   66.29
  -2  -2   0 3107.09   66.29
  -2  -2   0 3557.24   66.79
   2  -2   0 3132.39   66.49
   2  -2   0 3024.90   66.49
  -2   2   0 3139.39   66.29
   2   2   0 2954.60   66.19
  -2   2   0 3094.19   66.39
   2   2   0 3275.57   66.29
  -2   2   0 3004.10   66.39
   2   2   0 3475.95   66.39
  -2   2   0 2927.71   66.39
  -2   2   0 3056.99   65.79
   4  -2   0   80.69    3.70
   4  -2   0   74.79    3.70
   4  -2   0   73.59    2.60
  -4  -2   0   74.39    2.80
   4  -2   0   76.29    3.40
   4  -2   0   74.19    3.40
  -4  -2   0   73.69    2.60
  -4  -2   0   75.49    2.70
  -4   2   0   73.79    3.30
   4   2   0   74.59    3.50
  -4   2   0   67.89    3.30
   4   2   0   75.99    2.70
   4   2   0   71.79    2.70
  -4   2   0   67.89    3.50
   6  -2   0 1836.12   40.10
   6  -2   0 1894.11   40.90
  -6  -2   0 1774.12   39.30
  -6  -2   0 1794.12   39.20
  -6  -2   0 1738.93   39.50
  -6  -2   0 1904.81   40.80
   6  -2   0 1821.92   40.40
   6  -2   0 1789.92   38.00
   6  -2   0 1845.12   40.90
   6  -2   0 1838.12   40.10
  -6   2   0 1901.51   39.80
  -6   2   0 1753.32   40.70
  -6   2   0 1732.73   40.90
  -6   2   0 1834.72   40.80
   6   2   0 1737.43   40.70
   6   2   0 1828.82   39.30
   6   2   0 1800.52   39.10
   8  -2   0 1481.95   34.70
  -8  -2   0 1484.65   34.70
  -8  -2   0 1477.75   33.80
   8  -2   0 1472.55   34.20
   8  -2   0 1488.15   33.80
   8  -2   0 1442.06   34.20
  -8  -2   0 1425.56   33.10
  -8  -2   0 1527.35   32.60
   8  -2   0 1444.56   34.80
  -8  -2   0 1464.35   33.40
   8   2   0 1455.85   33.20
  -8   2   0 1492.45   33.50
  -8   2   0 1443.56   34.80
   8   2   0 1471.35   33.00
   8   2   0 1439.16   34.90
  -8   2   0 1457.15   34.50
  -8   2   0 1457.95   35.20
  -8   2   0 1469.05   33.20
 -10  -2   0 1048.10   26.80
 -10  -2   0 1110.59   23.10
  10  -2   0 1062.69   27.80
  10  -2   0 1075.79   26.30
  10  -2   0 1086.79   27.80
  10  -2   0 1075.59   27.40
 -10  -2   0 1060.89   26.40
 -10  -2   0 1070.29   26.10
  10  -2   0 1040.70   27.10
 -10  -2   0 1074.59   25.30
  10  -2   0 1089.79   31.30
 -10   2   0 1087.59   27.80
  10   2   0 1104.59   28.30
 -10   2   0 1057.39   26.30
 -10   2   0 1063.29   27.80
  10   2   0 1033.50   25.80
 -10   2   0 1070.79   25.50
  10   2   0 1028.50   26.10
 -10   2   0 1064.19   28.30
  12  -2   0   72.69    6.20
  12  -2   0   66.59    6.60
 -12  -2   0   61.99    5.70
 -12  -2   0   72.79    6.10
 -12  -2   0   67.29    6.10
 -12  -2   0   67.79    5.70
  12  -2   0   66.39    6.70
  12  -2   0   58.19    7.20
 -12   2   0   72.29    5.00
 -12   2   0   69.29    7.30
  12   2   0   70.89    7.20
 -12   2   0   78.69    7.10
 -12   2   0   69.09    6.70
  14  -2   0 1319.57   34.80
  14  -2   0 1258.27   34.70
  14  -2   0 1306.27   34.50
 -14  -2   0 1292.07   33.10
 -14  -2   0 1290.67   33.40
  14  -2   0 1291.77   32.20
 -14   2   0 1320.57   35.20
  14   2   0 1314.97   32.90
  14   2   0 1156.48   37.90
 -14   2   0 1284.57   36.00
  16  -2   0 1178.48   31.40
 -16  -2   0 1259.37   33.60
  16  -2   0 1223.08   35.30
 -16  -2   0 1183.18   34.30
  16  -2   0 1250.47   45.60
  16  -2   0 1233.38   34.90
 -16   2   0 1196.68   36.10
 -16   2   0 1193.48   35.10
  16   2   0 1195.38   36.20
  16   2   0 1193.88   33.70
 -18  -2   0   67.89    9.50
  18  -2   0   79.49   11.20
 -18  -2   0   76.89    9.70
  18  -2   0   55.19   10.20
 -18   2   0   50.49    9.90
  18   2   0   66.59   10.60
 -18   2   0   56.69   10.20
   1  -3   0  935.11   20.20
   1  -3   0  952.50   20.40
  -1  -3   0  921.31   19.40
   1  -3   0  897.01   20.30
   1  -3   0  901.71   20.20
   1  -3   0  910.81   21.10
   1  -3   0  906.01   19.80
  -1  -3   0  926.71   20.60
   1  -3   0  920.61   20.50
  -1  -3   0  913.11   19.40
  -1  -3   0  939.01   20.20
  -1  -3   0  904.11   19.40
  -1   3   0  927.31   19.80
   1   3   0  930.01   20.50
  -1   3   0  949.60   21.10
  -1   3   0  913.61   20.30
   1   3   0  902.31   19.30
  -1   3   0  914.71   19.70
   3  -3   0  102.99    3.70
   3  -3   0  105.99    4.10
  -3  -3   0  104.19    4.10
   3  -3   0  103.39    4.30
   3  -3   0   94.49    4.60
  -3  -3   0  105.49    3.40
  -3  -3   0  102.59    2.80
  -3  -3   0  106.99    2.90
   3  -3   0  107.79    4.40
  -3   3   0  105.09    3.70
   3   3   0  107.89    4.20
  -3   3   0  104.89    4.10
  -3   3   0  104.09    4.20
   3   3   0  109.59    2.90
  -3   3   0  101.69    4.30
  -3   3   0   96.09    4.20
   5  -3   0 2037.00   44.30
   5  -3   0 1981.00   44.00
  -5  -3   0 1967.20   41.70
  -5  -3   0 1957.70   42.40
   5  -3   0 2005.20   42.40
   5  -3   0 1976.60   44.30
  -5  -3   0 2134.59   44.30
   5  -3   0 2008.50   44.50
  -5  -3   0 1990.90   42.30
  -5   3   0 1898.51   44.20
   5   3   0 2036.70   44.40
  -5   3   0 2043.60   43.30
   5   3   0 1968.80   42.10
  -5   3   0 1998.70   44.10
  -5   3   0 1981.20   43.90
   5   3   0 1974.00   42.20
   7  -3   0 1344.77   31.40
  -7  -3   0 1306.17   30.00
   7  -3   0 1338.07   30.70
   7  -3   0 1352.46   28.90
  -7  -3   0 1307.87   29.60
   7  -3   0 1339.97   31.40
  -7  -3   0 1360.76   29.80
  -7  -3   0 1326.87   31.60
   7  -3   0 1300.67   31.90
   7   3   0 1323.77   32.00
  -7   3   0 1334.77   30.90
  -7   3   0 1342.77   32.30
   7   3   0 1338.47   29.60
   7   3   0 1344.57   29.50
  -7   3   0 1349.16   31.60
  -7   3   0 1308.37   31.80
  -7   3   0 1332.37   30.50
  -9  -3   0   80.29    4.80
  -9  -3   0   67.29    5.90
   9  -3   0   90.79    6.10
   9  -3   0   76.19    5.70
  -9  -3   0   77.79    4.60
  -9  -3   0   73.19    4.00
   9  -3   0   84.09    5.90
   9  -3   0   81.39    5.30
  -9  -3   0   77.69    4.40
   9  -3   0   75.99    5.90
   9  -3   0   80.79    5.70
   9   3   0   74.69    5.80
  -9   3   0   75.99    6.10
  -9   3   0   73.29    5.60
  -9   3   0   76.09    5.80
  -9   3   0   77.09    4.80
   9   3   0   82.49    4.70
   9   3   0   72.29    4.20
  -9   3   0   68.39    5.10
   9   3   0   76.69    4.60
 -11  -3   0 1384.76   30.10
  11  -3   0 1424.16   34.80
  11  -3   0 1346.07   35.00
 -11  -3   0 1395.76   32.00
 -11  -3   0 1396.06   33.60
  11  -3   0 1318.17   35.10
 -11  -3   0 1372.66   32.70
  11  -3   0 1372.56   33.80
  11  -3   0 1364.26   34.30
 -11  -3   0 1394.46   33.10
 -11   3   0 1417.26   35.10
  11   3   0 1418.66   32.60
  11   3   0 1384.16   35.70
 -11   3   0 1393.56   36.10
 -11   3   0 1373.86   32.80
 -11   3   0 1338.07   35.20
 -13  -3   0  419.16   14.80
  13  -3   0  410.96   15.60
  13  -3   0  433.06   16.50
  13  -3   0  407.06   14.70
 -13  -3   0  426.36   14.40
 -13  -3   0  423.46   14.00
  13  -3   0  408.26   15.90
  13   3   0  411.66   16.70
 -13   3   0  426.86   13.50
 -13   3   0  400.46   16.90
  13   3   0  425.76   14.10
 -13   3   0  442.66   16.50
  13   3   0  437.56   14.10
  15  -3   0   14.30    5.40
  15  -3   0    7.70    6.10
 -15  -3   0    8.00    4.70
  15  -3   0    9.40    6.00
 -15  -3   0    8.30    4.40
  15  -3   0    3.40    5.50
 -15   3   0    8.20    5.50
 -15   3   0   14.80    9.60
  15   3   0    9.20    5.60
  15   3   0    2.50    5.10
  17  -3   0   45.20    8.80
 -17  -3   0   51.79    7.70
  17  -3   0   43.00    9.40
 -17  -3   0   36.40    7.20
 -17   3   0   54.89    9.10
  17   3   0   44.80    9.40
 -17   3   0   57.59    9.20
  19  -3   0    4.10   10.30
 -19  -3   0    5.40    8.10
 -19  -3   0   10.90    8.40
 -19   3   0   11.40    9.80
  19   3   0   -7.00   10.20
 -19   3   0   -4.40   10.40
   0  -4   0  494.15   11.40
   0  -4   0  492.65   11.70
   0  -4   0  498.95   11.50
   0  -4   0  503.25   12.90
   0  -4   0  488.45   11.40
   0  -4   0  490.05   11.50
   0  -4   0  497.65   11.00
   0  -4   0  504.15   11.10
   0   4   0  470.45   12.50
   0   4   0  492.05   11.50
  -2  -4   0 1297.27   28.30
  -2  -4   0 1352.06   28.30
  -2  -4   0 1265.37   26.60
   2  -4   0 1305.57   28.20
   2  -4   0 1203.18   29.00
   2  -4   0 1274.27   27.70
  -2  -4   0 1277.37   26.60
   2  -4   0 1194.48   29.20
   2  -4   0 1317.57   28.60
  -2  -4   0 1081.09   26.40
   2   4   0 1276.97   26.40
  -2   4   0 1306.47   28.40
  -2   4   0 1295.87   27.40
   2   4   0 1330.17   28.20
  -4  -4   0    3.20    1.00
   4  -4   0    1.90    1.40
   4  -4   0    5.00    1.60
  -4  -4   0    4.70    0.70
   4  -4   0    3.70    1.30
  -4  -4   0    4.00    0.70
   4  -4   0    5.20    1.60
  -4  -4   0    3.80    1.50
   4  -4   0    1.00    1.10
   4  -4   0    2.30    1.30
  -4  -4   0    5.80    0.90
  -4   4   0    4.70    1.30
  -4   4   0    2.20    1.30
   4   4   0    4.60    1.60
  -4   4   0    3.10    1.60
  -4   4   0    4.10    1.40
  -4   4   0    2.80    1.20
   4   4   0    4.00    0.70
   6  -4   0  976.00   23.20
   6  -4   0  930.61   23.30
   6  -4   0  916.41   23.60
  -6  -4   0  902.11   20.90
   6  -4   0  965.10   21.60
  -6  -4   0  969.20   23.30
   6  -4   0  906.61   22.10
  -6  -4   0  945.51   20.80
  -6  -4   0  928.61   20.60
   6  -4   0  932.91   23.60
   6  -4   0  845.72   23.10
  -6  -4   0  952.40   20.50
  -6   4   0  849.22   25.20
   6   4   0  959.20   20.40
   6   4   0  941.81   20.60
  -6   4   0  944.71   23.10
   6   4   0  961.60   20.70
   6   4   0  942.61   23.40
  -6   4   0  978.10   22.30
  -6   4   0  922.01   23.50
  -6   4   0  900.61   23.10
   8  -4   0  234.08    9.60
   8  -4   0  243.28    7.10
  -8  -4   0  243.78    7.00
  -8  -4   0  241.88    7.90
  -8  -4   0  242.18    7.50
  -8  -4   0  240.08    7.40
   8  -4   0  237.48    9.60
   8  -4   0  237.98    9.50
   8  -4   0  238.88    8.60
   8  -4   0  248.38    9.80
  -8  -4   0  258.77    9.80
   8  -4   0  227.58    9.20
  -8   4   0  231.58    9.60
  -8   4   0  241.78    8.60
  -8   4   0  228.88    9.30
   8   4   0  248.58    7.20
   8   4   0  241.18    9.80
   8   4   0  241.28    7.40
  -8   4   0  236.58    9.00
  -8   4   0  243.18   10.20
   8   4   0  238.98    7.40
  10  -4   0   18.40    3.70
  10  -4   0   33.70    4.30
  10  -4   0   25.00    4.20
  10  -4   0   17.20    3.70
  10  -4   0   32.60    4.60
  10  -4   0   27.40    4.40
 -10  -4   0   29.10    3.60
 -10  -4   0   31.50    3.70
 -10  -4   0   31.30    3.30
 -10  -4   0   24.50    3.30
 -10  -4   0   28.40    3.10
  10   4   0   27.00    3.50
  10   4   0   25.10    4.30
 -10   4   0   25.10    3.60
  10   4   0   24.80    3.30
 -10   4   0   28.30    4.90
 -10   4   0   31.40    4.60
 -10   4   0   23.40    4.00
 -12  -4   0  339.87    9.60
  12  -4   0  329.27   13.40
 -12  -4   0  349.17   11.90
  12  -4   0  358.66   14.40
  12  -4   0  329.37   13.70
 -12  -4   0  338.57   11.40
 -12  -4   0  348.87   12.20
 -12  -4   0  348.77   11.30
  12  -4   0  341.17   13.30
  12   4   0  327.87   11.20
  12   4   0  349.47   11.40
 -12   4   0  334.57   12.40
 -12   4   0  344.07   14.30
 -12   4   0  319.37   14.70
  12   4   0  346.17   14.60
 -14  -4   0  243.98   11.20
  14  -4   0  234.88   13.70
  14  -4   0  227.78   12.80
  14  -4   0  234.08   12.40
  14  -4   0  219.68   12.00
 -14  -4   0  229.58   10.60
 -14   4   0  247.08   14.00
  14   4   0  255.37   13.90
  14   4   0  227.28   10.40
  16  -4   0  411.16   19.70
  16  -4   0  363.06   18.40
 -16  -4   0  408.26   16.70
 -16  -4   0  398.66   15.70
  16  -4   0  397.56   17.80
  16  -4   0  403.66   17.60
  16   4   0  397.16   19.40
 -16   4   0  376.16   19.90
 -16   4   0  388.16   18.60
 -18  -4   0  102.49   12.40
  18  -4   0   91.59   13.10
  18  -4   0  106.59   12.60
  18   4   0   88.29   13.70
 -18   4   0   98.49   14.20
 -18   4   0  132.79   15.80
  -1  -5   0  398.66    9.70
   1  -5   0  390.06   10.20
  -1  -5   0  394.76   11.30
  -1  -5   0  401.76   10.20
   1  -5   0  409.16   10.40
   1  -5   0  405.86   10.20
  -1  -5   0  391.56    9.40
  -1  -5   0  373.06    9.40
   1  -5   0  386.76    9.70
  -1  -5   0  389.56    9.50
  -1  -5   0  405.06    9.00
  -1  -5   0  403.16    8.90
   1  -5   0  388.16   10.30
   1  -5   0  394.86   10.50
   1  -5   0  390.66   11.60
  -1  -5   0  399.36    9.40
  -1   5   0  390.46   10.30
  -1   5   0  383.76   11.30
   1   5   0  402.06   11.00
  -1   5   0  397.46    9.10
  -1   5   0  393.06    9.20
   3  -5   0  115.39    5.00
   3  -5   0  101.79    5.50
  -3  -5   0  115.69    3.40
  -3  -5   0  115.69    3.10
  -3  -5   0  116.39    4.90
  -3  -5   0  119.09    4.70
   3  -5   0  102.89    4.70
   3  -5   0  105.59    4.80
   3  -5   0  113.49    4.80
   3  -5   0  113.29    5.00
  -3  -5   0  108.49    3.00
   3  -5   0  117.89    5.10
  -3   5   0  107.89    4.20
  -3   5   0  116.09    5.20
  -3   5   0  115.09    5.50
  -3   5   0  118.79    5.30
   5  -5   0    4.00    1.80
  -5  -5   0    8.40    1.00
  -5  -5   0    8.40    1.50
   5  -5   0    7.90    1.80
  -5  -5   0    9.30    1.20
   5  -5   0    4.70    1.80
   5  -5   0    8.50    1.90
  -5  -5   0    7.10    1.40
   5  -5   0    8.20    2.00
  -5  -5   0   10.70    2.20
   5  -5   0    8.70    2.20
   5  -5   0    5.60    2.00
  -5   5   0    6.60    2.10
   5   5   0   10.30    1.10
  -5   5   0    9.50    2.40
   5   5   0    7.00    2.10
  -5   5   0    4.60    1.70
  -5   5   0    7.60    1.70
  -7  -5   0    6.40    2.30
  -7  -5   0    7.40    1.20
   7  -5   0    9.90    2.00
  -7  -5   0    8.10    1.40
   7  -5   0    9.60    2.00
  -7  -5   0    9.00    1.40
   7  -5   0    8.20    2.60
   7  -5   0    1.10    2.10
   7  -5   0   10.30    2.90
  -7  -5   0    5.80    1.40
  -7  -5   0    8.40    1.40
   7  -5   0    5.30    2.20
   7  -5   0    7.90    2.30
   7  -5   0    7.80    2.50
  -7   5   0    7.10    2.10
  -7   5   0    4.00    2.10
   7   5   0    8.20    1.20
  -7   5   0    3.90    2.40
   7   5   0    7.60    1.20
   7   5   0    9.80    2.70
  -7   5   0   11.30    2.70
  -7   5   0    7.00    2.40
   9  -5   0  125.89    7.60
  -9  -5   0  124.39    5.00
   9  -5   0  121.29    7.50
   9  -5   0  119.59    7.30
   9  -5   0  114.49    5.20
   9  -5   0  108.39    7.30
  -9  -5   0  124.69    5.70
   9  -5   0  124.89    7.80
   9  -5   0  120.49    6.30
  -9  -5   0  113.19    7.90
  -9  -5   0  121.49    5.50
  -9  -5   0  114.29    4.90
  -9  -5   0  118.59    4.80
  -9   5   0  123.09    7.60
  -9   5   0  131.19    7.80
   9   5   0  119.39    7.70
   9   5   0  119.19    5.10
  -9   5   0  123.89    7.60
   9   5   0  122.19    4.70
  -9   5   0  108.59    6.80
   9   5   0  119.69    5.30
  -9   5   0  117.79    8.00
 -11  -5   0   64.19    4.90
  11  -5   0   66.09    6.20
 -11  -5   0   65.59    4.50
  11  -5   0   65.89    7.40
  11  -5   0   65.79    7.20
  11  -5   0   58.79    7.70
 -11  -5   0   67.79    4.80
 -11  -5   0   64.09    4.60
 -11  -5   0   64.59    5.20
  11  -5   0   66.49    6.90
 -11   5   0   52.69    6.40
 -11   5   0   51.39    6.50
  11   5   0   72.39    7.60
  11   5   0   61.89    4.80
 -11   5   0   74.39    7.40
 -13  -5   0   72.19    4.80
  13  -5   0   68.19    8.70
  13  -5   0   65.19    7.70
 -13  -5   0   78.29    6.40
 -13  -5   0   61.39    7.20
  13  -5   0   88.09    9.20
  13  -5   0   69.79    9.10
  13   5   0   76.29    6.70
  13   5   0   56.09    6.00
 -13   5   0   81.19    9.80
 -13   5   0   73.39    9.00
  15  -5   0   -1.10    6.20
 -15  -5   0   -1.80    4.10
  15  -5   0    2.90    5.00
 -15  -5   0    2.80    4.10
  15  -5   0   -1.20    6.60
  15   5   0    2.00    6.50
 -15   5   0    0.70    5.40
 -17  -5   0  135.29   11.20
  17  -5   0  130.99   13.90
  17  -5   0  128.89   15.30
 -17  -5   0  101.09   11.30
 -17   5   0  104.99   14.10
  17   5   0  117.99   13.80
 -17   5   0  124.59   14.80
   0  -6   0  202.18    6.30
   0  -6   0  200.08    6.40
   0  -6   0  196.28    6.00
   0  -6   0  204.08    6.20
   0  -6   0  187.08    7.60
   0  -6   0  201.68    5.70
   0  -6   0  207.88    6.10
   0  -6   0  205.28    5.70
   0   6   0  203.48    6.20
   0   6   0  196.58    7.50
   2  -6   0   55.79    3.60
   2  -6   0   55.49    3.50
  -2  -6   0   53.49    3.40
  -2  -6   0   56.59    2.50
   2  -6   0   50.59    4.30
  -2  -6   0   57.09    4.00
   2  -6   0   55.79    3.90
   2  -6   0   54.09    3.50
  -2  -6   0   59.39    2.60
  -2  -6   0   51.59    2.20
  -2  -6   0   54.39    2.40
   2  -6   0   58.09    3.50
  -2  -6   0   56.39    1.90
  -2  -6   0   53.09    2.00
  -2  -6   0   55.29    2.30
   2  -6   0   55.39    3.40
  -2   6   0   60.89    3.90
  -2   6   0   53.59    4.30
  -2   6   0   56.19    2.60
  -2   6   0   54.39    2.70
   4  -6   0  466.85   13.00
  -4  -6   0  458.45   10.60
   4  -6   0  470.45   13.70
  -4  -6   0  459.25   12.70
   4  -6   0  466.35   13.40
  -4  -6   0  475.35   13.10
   4  -6   0  439.76   13.00
   4  -6   0  451.15   14.40
   4  -6   0  448.86   13.20
  -4   6   0  452.35   13.90
  -4   6   0  482.65   13.90
  -4   6   0  468.45   12.10
  -4   6   0  457.75   13.50
  -6  -6   0    4.80    1.40
  -6  -6   0    0.90    2.30
   6  -6   0    5.60    2.00
   6  -6   0    1.80    2.00
   6  -6   0    7.10    2.50
  -6  -6   0    5.80    0.90
   6  -6   0    1.20    1.90
   6  -6   0    0.60    2.20
  -6  -6   0    6.60    1.10
  -6  -6   0    4.00    0.90
   6  -6   0    5.90    2.10
  -6   6   0    2.30    2.00
  -6   6   0    6.50    2.60
  -6   6   0    4.60    2.40
  -6   6   0    2.10    2.00
  -8  -6   0   83.09    3.50
   8  -6   0   88.09    6.70
  -8  -6   0   82.79    4.00
   8  -6   0   79.89    6.30
  -8  -6   0   83.39    3.50
   8  -6   0   87.09    6.30
   8  -6   0   88.29    5.10
   8  -6   0   85.49    6.50
   8  -6   0   93.19    7.10
  -8  -6   0   86.69    3.50
  -8  -6   0   87.29    3.80
  -8  -6   0   78.39    6.70
   8  -6   0   85.49    5.10
  -8   6   0   79.29    5.90
   8   6   0   97.49    6.80
  -8   6   0   80.89    6.60
  -8   6   0   77.39    6.50
   8   6   0   84.59    3.80
  -8   6   0   80.29    6.90
  10  -6   0   36.80    5.00
  10  -6   0   21.00    4.80
  10  -6   0   17.30    4.10
  10  -6   0   20.10    3.40
 -10  -6   0   26.60    3.30
 -10  -6   0   21.40    2.80
 -10  -6   0   23.50    3.10
 -10  -6   0   22.90    2.70
  10  -6   0   13.60    3.80
 -10  -6   0   25.00    3.40
  10  -6   0   21.40    3.70
 -10   6   0   29.20    4.70
  10   6   0   23.80    3.10
  10   6   0   30.40    3.40
 -10   6   0   20.70    4.40
  10   6   0   23.40    2.90
  10   6   0   19.10    4.60
  12  -6   0   74.39    7.30
 -12  -6   0   74.29    5.90
  12  -6   0   78.99    9.10
  12  -6   0   77.39    9.20
 -12  -6   0   81.89    5.80
 -12  -6   0   80.19    5.50
  12  -6   0   86.89    8.60
 -12  -6   0   77.99    5.80
  12   6   0   90.89    9.50
  12   6   0   85.59    5.70
 -12   6   0   73.09    8.50
  12   6   0   82.69    5.40
 -12   6   0   75.09    9.70
  14  -6   0  271.47   19.90
 -14  -6   0  321.97   12.60
  14  -6   0  314.27   16.70
  14  -6   0  298.37   14.00
  14  -6   0  333.97   16.20
 -14  -6   0  315.17   11.60
  14   6   0  337.47   16.90
 -14   6   0  310.47   16.00
 -14   6   0  313.17   17.50
  16  -6   0   23.50    7.20
  16  -6   0   21.10    8.70
 -16  -6   0   21.60    5.80
  16  -6   0   33.70    9.80
  16  -6   0   11.50    8.40
  16   6   0    8.30    8.60
 -16   6   0   24.30    8.30
 -16   6   0   23.20   10.10
  18  -6   0   13.60   10.90
 -18  -6   0    4.10    6.50
  18  -6   0    2.90    9.10
 -18   6   0   17.30    9.60
 -18   6   0   -3.70   12.30
  -1  -7   0   55.09    2.80
  -1  -7   0   48.40    4.40
   1  -7   0   53.99    3.50
  -1  -7   0   55.09    2.80
   1  -7   0   54.59    4.70
   1  -7   0   51.29    3.30
  -1  -7   0   53.99    3.00
   1  -7   0   48.80    3.30
  -1  -7   0   54.29    3.40
   1  -7   0   58.39    3.60
   1  -7   0   58.99    4.50
  -1  -7   0   56.19    2.90
   1  -7   0   50.89    3.40
  -1  -7   0   51.89    2.90
  -1  -7   0   54.19    2.60
  -1   7   0   52.09    4.60
   1   7   0   48.10    4.40
   3  -7   0 1961.70   43.50
   3  -7   0 1935.51   43.90
   3  -7   0 1935.61   43.80
   3  -7   0 1997.70   43.30
  -3  -7   0 1880.81   40.40
  -3  -7   0 1912.61   40.30
  -3  -7   0 1935.51   40.90
   3  -7   0 1866.61   45.30
  -3  -7   0 1910.91   40.20
  -3  -7   0 1897.01   40.80
   3  -7   0 1897.81   43.20
  -3  -7   0 1990.30   43.20
  -3  -7   0 1939.71   43.90
   3  -7   0 1916.61   43.60
  -3  -7   0 1961.00   40.30
  -3   7   0 1947.11   41.50
  -3   7   0 1896.41   44.80
  -3   7   0 1938.11   43.60
  -3   7   0 1949.20   41.80
  -5  -7   0  250.57    6.40
   5  -7   0  261.17    9.90
   5  -7   0  247.58    9.60
  -5  -7   0  256.47    8.80
   5  -7   0  247.58    9.40
   5  -7   0  247.08    9.60
   5  -7   0  258.87    9.50
   5  -7   0  260.97    9.40
  -5  -7   0  256.77    9.50
   5  -7   0  267.17   11.00
  -5   7   0  246.58    9.70
  -5   7   0  254.47   10.10
  -5   7   0  255.77   10.40
  -5   7   0  264.47    8.40
   7  -7   0  268.17   10.90
  -7  -7   0  247.58    6.80
  -7  -7   0  259.07    6.50
  -7  -7   0  248.48    9.70
   7  -7   0  240.18   10.40
  -7  -7   0  258.27    8.70
   7  -7   0  265.07   10.40
  -7  -7   0  247.58   10.20
   7  -7   0  244.28   11.50
   7  -7   0  259.27   10.10
   7  -7   0  264.27    9.50
  -7   7   0  271.27   11.10
  -7   7   0  261.27    9.40
  -7   7   0  235.78   10.80
  -9  -7   0   35.90    3.00
  -9  -7   0   36.00    2.50
   9  -7   0   37.40    5.10
   9  -7   0   38.40    4.50
   9  -7   0   42.90    5.30
   9  -7   0   35.70    5.00
   9  -7   0   45.40    5.70
   9  -7   0   38.40    4.90
   9  -7   0   36.10    5.50
  -9  -7   0   36.40    3.20
  -9  -7   0   41.30    5.20
  -9  -7   0   34.90    3.00
  -9   7   0   28.90    4.90
  -9   7   0   41.30    6.40
 -11  -7   0   44.00    5.80
  11  -7   0   44.00    5.60
 -11  -7   0   32.90    3.60
 -11  -7   0   35.00    3.40
  11  -7   0   33.80    6.40
  11  -7   0   30.10    5.60
  11  -7   0   33.30    4.80
 -11  -7   0   45.80    4.30
  11  -7   0   37.90    6.00
  11  -7   0   23.70    5.20
 -11   7   0   35.30    6.30
 -11   7   0   59.99    7.80
  11   7   0   39.90    4.90
  11   7   0   42.90    4.00
 -13  -7   0  641.54   16.90
  13  -7   0  616.34   23.00
 -13  -7   0  668.53   18.40
  13  -7   0  641.94   23.40
  13  -7   0  654.43   20.50
  13  -7   0  633.64   22.50
 -13   7   0  666.63   23.50
 -13   7   0  643.84   24.50
  15  -7   0  194.48   12.80
 -15  -7   0  210.28   10.60
  15  -7   0  220.88   15.60
  15  -7   0  196.88   16.00
 -15   7   0  159.48   20.40
 -15   7   0  213.98   15.30
 -17  -7   0  171.28   12.20
  17  -7   0  148.99   19.60
  17  -7   0  163.18   17.90
  17  -7   0  152.48   15.40
 -17   7   0  171.48   17.90
 -17   7   0  179.28   21.50
   0  -8   0  589.44   15.40
   0  -8   0  618.04   15.20
   0  -8   0  605.64   15.10
   0  -8   0  594.84   14.90
   0  -8   0  585.94   15.00
   0  -8   0  605.14   15.40
   0  -8   0  584.24   17.80
   0  -8   0  600.24   17.30
   0   8   0  618.34   17.60
   2  -8   0 1086.29   26.00
  -2  -8   0 1128.79   24.10
  -2  -8   0 1089.69   27.90
  -2  -8   0 1103.09   24.70
   2  -8   0 1120.89   26.30
   2  -8   0 1090.19   26.60
  -2  -8   0 1074.29   24.10
  -2  -8   0 1095.69   24.50
   2  -8   0 1091.99   26.40
  -2  -8   0 1104.09   26.00
   2  -8   0 1098.39   27.50
  -2  -8   0 1106.69   24.00
   2  -8   0 1075.89   26.00
  -2  -8   0 1045.30   27.60
  -2  -8   0 1105.99   24.20
   2  -8   0 1050.79   28.60
  -2   8   0 1084.49   23.50
  -2   8   0 1101.49   23.80
  -2   8   0 1092.99   26.40
  -2   8   0 1112.19   28.40
   4  -8   0   17.70    3.60
  -4  -8   0   19.10    2.00
  -4  -8   0   20.70    3.30
   4  -8   0   18.30    4.00
  -4  -8   0   18.60    4.00
   4  -8   0   17.50    3.50
   4  -8   0   21.10    3.30
  -4  -8   0   21.50    3.40
   4  -8   0   25.10    3.30
   4  -8   0   22.50    3.20
  -4  -8   0   18.50    1.70
   4  -8   0   13.80    2.90
  -4  -8   0   19.50    2.10
  -4   8   0   16.80    2.50
  -4   8   0   20.70    4.20
  -4   8   0   26.20    3.80
  -4   8   0   24.90    2.70
  -6  -8   0  819.32   22.20
  -6  -8   0  835.02   22.50
   6  -8   0  811.72   22.90
  -6  -8   0  825.32   21.30
   6  -8   0  806.82   24.30
   6  -8   0  831.12   22.40
   6  -8   0  823.32   22.90
   6  -8   0  815.32   22.10
   6  -8   0  821.02   22.00
  -6   8   0  798.72   20.50
  -6   8   0  814.72   23.20
  -6   8   0  802.52   22.80
  -6   8   0  840.12   21.00
   8  -8   0 1088.69   27.20
  -8  -8   0 1067.29   25.80
   8  -8   0 1043.40   30.30
   8  -8   0 1085.29   25.80
  -8  -8   0 1067.79   27.80
   8  -8   0 1094.29   29.40
   8  -8   0  986.00   28.00
  -8  -8   0 1100.19   23.60
   8  -8   0 1065.19   28.70
   8  -8   0 1081.59   29.50
  -8   8   0 1096.19   29.50
  -8   8   0 1077.69   30.20
  10  -8   0  305.77   11.10
  10  -8   0  293.07   11.60
  10  -8   0  300.57   14.00
 -10  -8   0  304.97    8.80
 -10  -8   0  296.97    9.00
  10  -8   0  281.17   14.00
  10  -8   0  298.67   14.80
 -10  -8   0  309.77    8.90
  10  -8   0  306.47   13.50
 -10   8   0  306.87   15.00
 -10   8   0  322.37   14.20
  12  -8   0    2.10    4.00
  12  -8   0    1.10    5.50
  12  -8   0    5.60    5.00
  12  -8   0   -2.60    5.50
 -12  -8   0    4.50    4.50
 -12   8   0   -2.80    5.60
 -12   8   0   20.30    6.00
  14  -8   0  255.77   15.60
 -14  -8   0  216.98    9.90
  14  -8   0  202.48   16.20
  14  -8   0  220.88   12.40
 -14   8   0  224.48   15.60
  16  -8   0  445.16   24.70
  16  -8   0  446.46   19.70
 -16  -8   0  454.95   16.20
  16  -8   0  484.75   24.90
  16  -8   0  458.95   23.30
 -16   8   0  474.25   23.10
 -16   8   0  440.46   25.60
  -1  -9   0  615.54   15.20
   1  -9   0  619.84   16.10
  -1  -9   0  632.34   15.90
   1  -9   0  618.64   16.20
  -1  -9   0  631.14   15.70
   1  -9   0  632.44   15.60
   1  -9   0  602.24   16.60
  -1  -9   0  637.74   16.20
  -1  -9   0  609.84   15.30
  -1  -9   0  625.64   15.20
   1  -9   0  632.74   16.60
   1  -9   0  619.34   16.30
  -1  -9   0  589.34   18.70
   1  -9   0  610.54   19.30
  -1   9   0  565.54   18.50
  -3  -9   0 2987.20   63.39
  -3  -9   0 2904.21   60.09
   3  -9   0 2826.02   63.89
  -3  -9   0 2883.21   60.89
  -3  -9   0 2893.41   59.99
  -3  -9   0 2899.81   60.89
   3  -9   0 2791.02   63.29
   3  -9   0 2880.01   66.79
  -3  -9   0 2793.12   60.19
  -3  -9   0 2924.41   60.59
   3  -9   0 2885.91   63.79
  -3  -9   0 2865.71   65.09
   3  -9   0 2898.31   64.19
   3  -9   0 2951.10   63.49
  -3   9   0 2876.41   60.49
  -3   9   0 2865.01   63.89
  -5  -9   0  844.72   23.10
   5  -9   0  860.01   23.60
   5  -9   0  873.71   23.90
   5  -9   0  869.81   23.20
   5  -9   0  803.12   23.50
  -5  -9   0  873.01   23.00
  -5  -9   0  853.01   19.00
   5  -9   0  872.81   23.00
   5  -9   0  862.71   25.90
  -5   9   0  870.41   21.30
  -5   9   0  885.61   21.00
  -5   9   0  862.31   23.70
   7  -9   0  765.92   22.30
   7  -9   0  732.43   22.20
   7  -9   0  757.22   24.10
   7  -9   0  756.32   21.90
  -7  -9   0  695.83   16.40
  -7  -9   0  725.23   20.10
   7  -9   0  729.43   21.30
  -7   9   0  727.53   19.70
  -7   9   0  747.23   22.30
  -7   9   0  761.82   20.10
   9  -9   0  470.15   17.70
   9  -9   0  480.25   19.00
  -9  -9   0  462.05   13.90
   9  -9   0  458.75   14.00
   9  -9   0  477.95   18.00
  -9  -9   0  482.25   12.10
   9  -9   0  513.15   17.60
  -9   9   0  497.05   18.10
  11  -9   0 1404.26   41.20
  11  -9   0 1430.86   39.30
  11  -9   0 1427.66   38.70
  11  -9   0 1426.66   34.70
 -11   9   0 1427.06   39.40
  13  -9   0  545.75   18.10
 -13  -9   0  535.85   14.60
  13  -9   0  533.35   21.40
  13  -9   0  533.55   22.30
  13  -9   0  488.65   23.10
 -13   9   0  530.05   22.20
  15  -9   0  193.88   17.30
  15  -9   0  216.88   20.20
  15  -9   0  201.38   15.50
  15  -9   0  186.18   18.80
 -15   9   0  165.78   17.40
   0 -10   0 1496.85   34.90
   0 -10   0 1542.15   34.60
   0 -10   0 1540.45   34.50
   0 -10   0 1527.65   35.20
   0 -10   0 1499.95   38.80
   0 -10   0 1506.75   34.40
   0 -10   0 1487.35   34.20
  -2 -10   0  335.37   10.80
   2 -10   0  364.76   14.70
  -2 -10   0  373.76   11.50
  -2 -10   0  364.86   10.30
   2 -10   0  346.27   12.00
  -2 -10   0  353.56    9.90
   2 -10   0  369.76   11.80
  -2 -10   0  355.26   13.90
  -2 -10   0  345.87    9.80
   2 -10   0  347.87   11.30
   2 -10   0  362.96   12.00
  -2 -10   0  369.16    9.60
   2 -10   0  354.06   11.60
  -2  10   0  356.06   11.90
  -4 -10   0  232.68   10.70
   4 -10   0  246.88   12.60
  -4 -10   0  236.78    6.90
   4 -10   0  208.28    9.90
  -4 -10   0  246.78    9.80
  -4 -10   0  241.38    7.10
   4 -10   0  230.28    9.80
   4 -10   0  227.38    9.60
   4 -10   0  243.48   10.30
   4 -10   0  254.37   10.40
  -4  10   0  241.88    8.00
  -4  10   0  236.08   10.30
  -4  10   0  243.98    7.60
   6 -10   0  319.57   12.90
  -6 -10   0  317.57   12.30
   6 -10   0  301.87   14.80
   6 -10   0  308.27   12.90
   6 -10   0  306.37   12.30
  -6 -10   0  307.87    8.40
   6 -10   0  283.07   11.90
  -6  10   0  313.17   12.90
  -6  10   0  330.37   10.80
  -6  10   0  321.37   10.90
   8 -10   0 3208.58   74.79
   8 -10   0 3398.96   76.19
   8 -10   0 3230.38   82.79
  -8 -10   0 3311.97   72.79
   8 -10   0 3432.96   70.89
   8 -10   0 3327.77   76.19
   8 -10   0 2978.10   80.89
  -8  10   0 3448.35   73.09
  -8  10   0 3243.38   75.89
  10 -10   0  684.73   19.00
  10 -10   0  703.23   23.30
  10 -10   0  699.33   25.80
 -10 -10   0  681.23   18.80
  10 -10   0  698.93   23.80
 -10  10   0  709.83   21.30
 -10  10   0  697.43   24.20
  12 -10   0  320.57   13.10
  12 -10   0  344.07   17.20
  12 -10   0  327.77   17.80
  12 -10   0  315.37   19.50
 -12  10   0  288.67   17.50
  14 -10   0  474.25   23.00
  14 -10   0  505.35   24.10
  14 -10   0  466.75   25.70
 -14  10   0  502.35   23.80
   1 -11   0  349.96   11.20
   1 -11   0  320.97   10.80
  -1 -11   0  331.47   10.20
  -1 -11   0  328.27    9.90
   1 -11   0  343.77   14.80
   1 -11   0  334.27   11.60
  -1 -11   0  352.76   11.20
  -1 -11   0  350.36   10.30
   1 -11   0  339.47   11.30
  -1 -11   0  342.77   14.40
  -1 -11   0  327.97   10.60
   1 -11   0  346.77   10.50
  -1 -11   0  333.17   12.40
   1 -11   0  344.37   11.60
   3 -11   0 1597.24   34.70
   3 -11   0 1510.75   37.30
   3 -11   0 1520.55   36.80
   3 -11   0 1529.05   37.60
   3 -11   0 1541.55   41.50
   3 -11   0 1500.55   37.80
   3 -11   0 1513.35   36.90
  -3 -11   0 1488.75   33.20
  -3 -11   0 1549.64   34.30
  -3 -11   0 1541.65   34.40
  -3 -11   0 1569.94   36.90
  -3 -11   0 1596.34   34.40
  -3 -11   0 1589.24   35.00
  -3 -11   0 1562.74   39.80
  -3  11   0 1555.04   37.60
   5 -11   0 1479.05   40.90
  -5 -11   0 1488.35   38.00
  -5 -11   0 1500.75   32.50
   5 -11   0 1461.95   37.50
   5 -11   0 1479.15   36.70
   5 -11   0 1509.75   37.10
   5 -11   0 1477.25   37.50
  -5 -11   0 1434.76   36.40
  -5  11   0 1497.25   33.00
  -5  11   0 1450.05   33.50
  -5  11   0 1472.45   37.50
   7 -11   0   71.19    5.10
   7 -11   0   56.79    6.80
   7 -11   0   74.99    8.40
   7 -11   0  100.29   11.10
  -7 -11   0   68.19    7.60
   7 -11   0   74.79    7.80
  -7  11   0   95.19    8.10
  -7  11   0   80.69    8.70
  -7  11   0   79.09    7.10
   9 -11   0  125.89   13.10
   9 -11   0  157.18    7.70
  -9 -11   0  162.08    9.40
   9 -11   0  161.08   11.10
   9 -11   0  173.28   12.10
  -9  11   0  170.08   12.20
  -9  11   0  166.78   10.40
  11 -11   0  825.52   28.30
  11 -11   0  825.02   27.20
  11 -11   0  822.62   30.70
 -11  11   0  833.72   25.30
 -11  11   0  819.92   28.20
  13 -11   0  720.73   30.90
  13 -11   0  732.83   27.60
  13 -11   0  744.73   28.90
 -13  11   0  732.53   28.50
 -13  11   0  742.43   25.50
   0 -12   0 1025.30   25.60
   0 -12   0 1001.60   30.30
   0 -12   0  990.60   25.40
   0 -12   0  988.60   24.40
   0 -12   0 1012.30   24.90
   0 -12   0  997.90   24.70
   0 -12   0 1013.30   24.60
  -2 -12   0  822.62   21.90
   2 -12   0  797.12   22.40
   2 -12   0  818.02   22.80
   2 -12   0  816.52   21.80
  -2 -12   0  810.22   20.60
   2 -12   0  834.62   22.10
   2 -12   0  828.62   28.60
  -2 -12   0  803.62   20.40
  -2 -12   0  799.12   19.70
  -2 -12   0  860.11   19.60
   2 -12   0  839.02   20.20
  -2 -12   0  798.52   25.80
  -2 -12   0  826.32   19.30
   4 -12   0    4.00    3.60
  -4 -12   0    3.30    4.60
   4 -12   0    9.90    3.70
  -4 -12   0    9.00    3.20
  -4 -12   0    9.10    2.10
  -4 -12   0    3.60    4.40
   4 -12   0    4.80    4.90
  -4  12   0    7.90    4.40
   6 -12   0  511.05   18.20
   6 -12   0  540.85   22.20
  -6 -12   0  534.55   18.90
   6 -12   0  546.45   19.00
  -6  12   0  514.95   15.00
  -6  12   0  536.35   19.10
   8 -12   0  839.52   26.20
   8 -12   0  830.42   26.90
   8 -12   0  838.72   29.80
  -8 -12   0  819.42   24.80
  -8  12   0  851.41   27.20
  -8  12   0  872.81   23.50
  10 -12   0  321.47   17.80
  10 -12   0  330.77   17.00
  10 -12   0  348.07   20.80
 -10  12   0  330.07   17.90
 -10  12   0  335.67   15.30
  12 -12   0   10.50    8.50
  12 -12   0   -5.00    7.50
  12 -12   0   -6.10   10.10
 -12  12   0   21.40    9.20
 -12  12   0   -6.40    8.00
   1 -13   0  125.69    7.80
  -1 -13   0  134.99    8.90
  -1 -13   0  147.09    7.40
  -1 -13   0  143.09    7.80
   1 -13   0  161.68   12.90
  -1 -13   0  139.29    7.10
   1 -13   0  139.59    8.20
   1 -13   0  149.39    8.30
  -1 -13   0  153.58   12.40
  -3 -13   0  558.04   15.30
   3 -13   0  574.24   18.00
   3 -13   0  558.64   18.40
   3 -13   0  586.84   23.20
  -3 -13   0  578.04   15.10
  -3 -13   0  568.04   21.60
   5 -13   0  481.25   18.00
   5 -13   0  467.95   17.30
  -5 -13   0  499.15   19.50
   5 -13   0  512.75   22.60
   7 -13   0   26.00    8.20
   7 -13   0   40.00    6.80
   7 -13   0   25.50    6.40
  -7 -13   0   32.10    7.00
  -7  13   0   21.80    6.90
   9 -13   0    1.10    8.80
   9 -13   0    4.60    6.50
   9 -13   0    0.00    6.40
  -9  13   0    9.70    7.80
  11 -13   0   30.70    9.20
  11 -13   0   11.20   11.80
  11 -13   0   29.40    8.30
 -11  13   0   28.60   10.30
   0 -14   0    6.10    3.70
   0 -14   0    9.30    6.40
  -2 -14   0  157.48    8.00
  -2 -14   0  170.08   13.70
   2 -14   0  162.68    9.80
  -2 -14   0  171.68    8.40
   2 -14   0  162.38   14.60
  -2 -14   0  150.68    6.60
   2 -14   0  159.78    9.50
   4 -14   0  118.09    9.70
   4 -14   0  116.09   14.40
   4 -14   0  117.39   10.00
  -4 -14   0  102.79   12.60
   6 -14   0  322.77   15.60
  -6 -14   0  266.17   18.10
   6 -14   0  302.17   15.00
   6 -14   0  287.97   19.40
   8 -14   0  124.69   13.50
   8 -14   0  105.49   12.90
   8 -14   0  134.99   17.70
  -8  14   0  147.09   15.90
  10 -14   0  179.08   21.80
  10 -14   0  204.88   16.50
  10 -14   0  175.58   16.70
 -10  14   0  183.58   19.60
   1 -15   0   19.90    8.50
  -1 -15   0    9.40    8.10
   1 -15   0   13.00    4.80
  -1 -15   0   18.70    4.50
   1 -15   0    4.90    4.80
   3 -15   0   22.10    5.90
  -3 -15   0   17.00    8.40
   3 -15   0   23.70    9.20
   3 -15   0   18.30    5.60
   5 -15   0   20.20    9.70
   5 -15   0   20.30    6.70
   5 -15   0   29.30    6.60
  -5 -15   0   18.50    8.50
   7 -15   0  101.39   12.60
  -7 -15   0  110.09   14.60
   7 -15   0  103.69   13.00
   7 -15   0  155.08   19.10
   0 -16   0   -0.30    4.90
   0 -16   0    3.80    9.60
   0 -16   0    7.90    5.00
   2 -16   0   -2.30    5.70
   2 -16   0    8.10    9.70
  -2 -16   0    4.30    4.40
   2 -16   0    6.60    5.80
  -2 -16   0    2.50    9.70
  -4 -16   0    4.40   10.30
   4 -16   0   13.90    6.90
   4 -16   0   15.90    6.80
   4 -16   0    7.70   10.60
  18   0  -1    3.80    8.40
 -18   0   1    5.30    7.60
 -18   0   1   -9.50    7.50
 -16   0   1   -1.60    5.50
  16   0  -1   -0.70    5.90
  16   0  -1   14.70    6.30
 -16   0   1    1.90    5.20
 -14   0   1   -2.60    3.50
  14   0  -1    0.20    4.20
 -14   0   1    0.50    3.80
  14   0  -1    2.30    4.20
 -14   0   1    5.60    4.10
  12   0  -1    1.50    3.20
 -12   0   1    2.60    2.70
  12   0  -1    0.70    1.90
 -12   0   1   -2.00    2.70
 -10   0   1    3.00    2.20
 -10   0   1    4.30    2.20
  10   0  -1    2.70    2.40
  10   0  -1   -3.30    2.00
 -10   0   1    3.10    2.40
  10   0  -1   -0.50    2.20
  10   0  -1    2.20    1.40
 -10   0   1   -1.60    2.10
  -8   0   1   -1.00    1.50
   8   0  -1    2.70    1.70
  -8   0   1    0.90    1.40
   8   0  -1    1.10    1.00
   8   0  -1    3.10    1.70
  -8   0   1   -1.00    1.60
  -8   0   1   -0.80    1.60
   8   0  -1    0.50    1.70
   8   0  -1    0.40    1.70
   6   0  -1    0.80    1.10
  -6   0   1    2.00    1.00
   6   0  -1   -0.30    1.00
  -6   0   1    1.10    1.60
  -6   0   1    1.10    1.20
   6   0  -1    2.40    0.80
   6   0  -1    1.10    1.40
   6   0  -1   -0.20    1.00
   4   0  -1    0.70    0.70
  -4   0   1    1.70    0.90
  -4   0   1    0.40    0.60
   4   0  -1    0.40    0.40
   4   0  -1   -0.60    0.60
  -4   0   1    0.10    0.70
   4   0  -1    0.20    0.50
  -2   0   1    0.50    0.40
  -2   0   1    1.60    0.50
  -2   0   1   -0.10    0.30
   2   0  -1    1.00    0.50
   2   0  -1    0.50    0.40
   2   0  -1    0.80    0.50
  -2   0  -1    0.90    0.40
   2   0   1    0.20    0.40
  -2   0  -1    0.20    0.40
   2   0   1    1.60    0.50
   2   0   1    1.70    0.60
   2   0   1    0.40    0.40
  -2   0  -1    0.40    0.50
   2   0   1    0.00    0.40
  -2   0  -1    0.50    0.40
   2   0   1    1.60    0.50
   4   0   1    0.20    0.60
   4   0   1    1.20    0.80
   4   0   1    1.50    0.80
   4   0   1    1.70    0.80
   4   0   1    1.00    0.60
   4   0   1   -0.20    0.60
  -4   0  -1    0.60    0.80
  -4   0  -1   -0.80    0.60
  -4   0  -1   -0.60    0.60
  -4   0  -1    0.10    0.70
   4   0   1    0.80    0.80
   6   0   1    1.90    1.10
   6   0   1   -0.30    0.90
   6   0   1    1.80    1.20
   6   0   1   -0.10    1.10
   6   0   1    0.70    1.10
  -6   0  -1   -0.40    1.00
   6   0   1    1.40    1.10
  -6   0  -1    0.70    1.40
  -6   0  -1   -0.60    0.90
   6   0   1    0.70    1.30
  -6   0  -1    1.00    1.00
  -8   0  -1   -0.80    1.50
  -8   0  -1    1.10    1.80
   8   0   1    3.90    1.50
   8   0   1    0.60    1.30
  -8   0  -1    1.90    1.20
   8   0   1   -1.60    1.60
   8   0   1   -0.60    1.60
  -8   0  -1   -0.90    1.50
   8   0   1    0.60    1.30
  -8   0  -1    4.30    1.70
   8   0   1    2.40    1.70
   8   0   1    0.20    1.60
  10   0   1   -1.00    2.30
 -10   0  -1    0.80    2.10
  10   0   1   -0.20    1.80
 -10   0  -1    2.00    2.10
  10   0   1   -3.50    2.00
  10   0   1   -1.30    2.10
  10   0   1    2.70    2.00
  10   0   1   -0.40    2.30
  10   0   1   -2.50    2.30
 -10   0  -1    0.40    2.20
 -10   0  -1    0.80    1.80
  12   0   1   -1.60    3.00
 -12   0  -1    0.00    3.00
  12   0   1    2.10    3.10
 -12   0  -1    1.30    3.10
  12   0   1    1.00    2.70
 -12   0  -1    2.20    1.80
 -14   0  -1    3.40    3.70
 -14   0  -1    2.90    2.30
  14   0   1   -2.70    4.20
 -14   0  -1    1.00    3.90
  14   0   1   -2.00    4.20
  14   0   1   -0.10    3.80
 -16   0  -1   -5.80    5.10
  16   0   1    0.00    6.10
  16   0   1    3.60    5.80
 -16   0  -1    1.20    5.50
 -18   0  -1  -10.30    7.10
  18   0   1    1.50    8.60
 -18   0  -1   -5.20    6.60
 -19  -1   1   14.40    8.80
 -19  -1   1   15.20    8.60
  19  -1  -1    3.50    9.50
 -19   1   1   -4.40    8.40
  19   1  -1    0.50    9.60
 -19   1   1    3.50    8.60
  17  -1  -1   15.40    8.20
  17  -1  -1   12.00    7.60
 -17  -1   1   12.40    6.30
 -17  -1   1   20.90    7.10
  17   1  -1   13.20    7.70
 -17   1   1   21.40    7.10
 -17   1   1   21.00    8.00
  15  -1  -1  135.69   10.70
  15  -1  -1  121.79   11.50
 -15  -1   1  123.29   10.20
 -15  -1   1  116.79    9.40
 -15  -1   1  130.89    9.80
 -15   1   1  119.49    9.90
 -15   1   1  111.89   10.60
 -15   1   1  108.89   10.10
  15   1  -1  122.09   10.20
  15   1  -1  121.19   10.70
  13  -1  -1    5.40    3.90
 -13  -1   1   -0.90    3.20
 -13  -1   1    1.00    3.40
 -13  -1   1    1.40    3.20
  13   1  -1   10.90    4.40
 -13   1   1    8.30    4.10
 -13   1   1   -2.80    3.20
  13   1  -1    0.30    3.10
 -13   1   1    0.10    3.60
 -11  -1   1   41.60    5.00
  11  -1  -1   41.00    8.10
  11  -1  -1   43.20    5.40
 -11  -1   1   43.10    4.80
 -11  -1   1   40.40    4.70
 -11  -1   1   53.49    5.50
 -11   1   1   42.40    5.10
 -11   1   1   44.00    5.30
  11   1  -1   35.10    4.80
 -11   1   1   44.40    5.60
   9  -1  -1  267.97   10.30
  -9  -1   1  295.47    9.10
   9  -1  -1  286.97   10.40
   9  -1  -1  300.67   10.60
  -9  -1   1  303.67   10.20
   9  -1  -1  296.77    8.90
  -9  -1   1  287.87   10.20
  -9  -1   1  288.07    9.70
   9  -1  -1  278.47   10.00
  -9   1   1  293.17   10.60
  -9   1   1  299.67    7.10
   9   1  -1  295.37   10.80
   9   1  -1  296.47   10.00
  -9   1   1  310.77   10.50
   9   1  -1  301.87    9.70
  -9   1   1  288.47   10.80
  -9   1   1  285.27    9.50
   7  -1  -1 1424.26   30.70
   7  -1  -1 1442.06   32.30
   7  -1  -1 1425.56   31.90
  -7  -1   1 1291.47   31.50
  -7  -1   1 1387.76   30.70
  -7  -1   1 1356.16   31.80
  -7  -1   1 1381.36   31.40
   7  -1  -1 1389.66   32.30
   7  -1  -1 1388.66   32.10
  -7   1   1 1425.96   32.40
   7   1  -1 1370.16   31.60
  -7   1   1 1389.76   31.10
  -7   1   1 1342.27   31.80
  -7   1   1 1377.06   29.40
  -7   1   1 1356.66   32.50
   7   1  -1 1427.56   31.30
   7   1  -1 1322.47   32.30
   5  -1  -1  752.72   17.00
  -5  -1   1  756.32   17.50
   5  -1  -1  724.13   18.90
   5  -1  -1  759.92   17.80
  -5  -1   1  708.83   17.70
  -5  -1   1  766.02   16.80
   5  -1  -1  752.62   18.00
  -5  -1   1  655.93   17.90
   5   1  -1  729.03   17.40
   5   1  -1  701.53   17.90
  -5   1   1  761.42   18.20
  -5   1   1  755.32   16.30
   5   1  -1  761.72   17.20
  -5   1   1  733.63   16.80
  -5   1   1  755.12   17.20
   3  -1  -1  222.88    6.00
   3  -1  -1  217.68    6.20
  -3  -1   1  230.58    5.60
   3  -1  -1  216.98    5.90
   3  -1  -1  221.38    6.40
  -3  -1   1  238.58    6.00
   3  -1  -1  230.98    6.40
  -3  -1   1  222.68    6.10
  -3   1   1  228.68    5.70
  -3   1   1  222.08    6.40
  -3   1   1  224.78    6.30
   3   1  -1  220.18    6.00
  -3   1   1  228.78    6.00
   3   1  -1  223.48    5.50
   3   1  -1  219.68    5.90
   3   1  -1  226.18    6.30
  -3   1   1  222.68    6.40
  -1  -1   1  431.46    9.40
   1  -1  -1  419.36    9.50
  -1  -1   1  422.66    9.70
   1  -1  -1  441.66    9.70
   1  -1  -1  446.66    9.70
   1  -1  -1  417.76    9.80
  -1  -1   1  432.86    9.70
  -1  -1   1  441.46    9.70
   1   1  -1  421.66    9.70
   1   1  -1  433.96    9.40
  -1   1   1  423.26    9.50
   1   1  -1  436.56    9.70
  -1   1   1  431.36    9.70
  -1   1   1  414.36    9.70
   1   1  -1  433.56    9.70
  -1  -1  -1  466.75   10.30
   1  -1   1  480.85   10.70
  -1  -1  -1  464.85   10.00
  -1  -1  -1  463.15   10.00
   1  -1   1  470.45   10.60
  -1   1  -1  468.65   10.00
   1   1   1  469.45   10.00
  -1   1  -1  463.35   10.90
  -1   1  -1  450.95   10.40
  -1   1  -1  478.25   10.60
   1   1   1  461.35   10.40
  -1   1  -1  455.25   10.50
  -1   1  -1  471.85   10.70
  -3  -1  -1  417.86   10.60
  -3  -1  -1  421.86   10.00
   3  -1   1  426.76   10.60
  -3  -1  -1  427.36    9.50
   3  -1   1  414.16   10.40
   3  -1   1  439.66   10.80
   3  -1   1  418.16   10.60
  -3  -1  -1  419.86    9.90
   3  -1   1  422.56   10.20
  -3  -1  -1  428.96    9.90
  -3  -1  -1  423.36   10.20
  -3   1  -1  425.76   10.60
  -3   1  -1  418.56   10.60
  -3   1  -1  421.36   10.10
   3   1   1  434.66    9.50
   3   1   1  434.16    9.90
   3   1   1  414.86   10.60
  -3   1  -1  432.76   10.60
   3   1   1  437.76   10.00
   3   1   1  427.36    9.80
   3   1   1  426.46    9.90
  -3   1  -1  432.46   10.80
  -5  -1  -1   92.59    4.30
  -5  -1  -1   99.49    2.70
   5  -1   1   97.79    4.20
  -5  -1  -1   80.29    4.10
   5  -1   1   90.79    4.00
   5  -1   1   97.49    4.10
  -5  -1  -1   98.29    3.50
  -5  -1  -1   93.69    3.70
   5  -1   1   93.59    4.00
   5  -1   1   93.49    4.10
   5  -1   1   93.39    4.30
   5  -1   1   92.09    4.30
  -5  -1  -1   98.49    4.00
   5   1   1   99.29    4.50
  -5   1  -1   98.79    4.10
  -5   1  -1   98.79    4.00
   5   1   1   92.79    3.60
   5   1   1  102.19    3.70
   5   1   1   95.69    3.80
   5   1   1   92.69    3.70
  -5   1  -1   95.59    4.20
   5   1   1   96.69    3.70
  -7  -1  -1   35.20    3.10
   7  -1   1   33.00    3.20
   7  -1   1   38.60    3.50
  -7  -1  -1   43.10    3.70
   7  -1   1   36.20    3.40
   7  -1   1   38.10    3.20
   7  -1   1   36.70    3.30
   7  -1   1   38.90    3.10
  -7  -1  -1   32.30    2.30
  -7  -1  -1   41.30    3.30
  -7  -1  -1   29.60    2.90
   7   1   1   36.00    3.00
   7   1   1   32.20    2.60
   7   1   1   38.50    3.00
  -7   1  -1   32.20    3.50
  -7   1  -1   35.40    2.90
   7   1   1   32.10    3.50
  -7   1  -1   38.00    3.40
   7   1   1   36.20    3.00
  -7   1  -1   36.10    3.40
  -7   1  -1   34.70    3.30
   7   1   1   32.20    2.70
   9  -1   1    2.30    2.00
  -9  -1  -1    3.70    1.40
  -9  -1  -1    7.30    3.10
  -9  -1  -1   10.60    2.40
   9  -1   1    5.50    2.40
   9  -1   1    8.20    2.30
   9  -1   1    5.40    2.40
   9  -1   1    4.90    2.30
   9  -1   1    9.20    2.50
  -9  -1  -1    4.30    2.00
   9  -1   1    6.70    2.10
  -9  -1  -1   11.00    2.40
  -9   1  -1    6.00    1.80
   9   1   1    1.20    1.40
  -9   1  -1    6.90    2.10
   9   1   1    8.80    2.70
  -9   1  -1    5.00    2.20
   9   1   1    9.20    2.10
   9   1   1    6.00    2.20
   9   1   1    9.10    2.40
   9   1   1   10.10    2.40
  -9   1  -1    7.20    2.60
 -11  -1  -1 1239.78   27.10
  11  -1   1 1188.88   31.20
 -11  -1  -1 1235.18   30.50
 -11  -1  -1 1219.48   31.00
 -11  -1  -1 1244.28   29.30
  11  -1   1 1177.78   30.50
  11  -1   1 1218.08   29.60
  11  -1   1 1244.58   31.00
  11   1   1 1193.88   29.90
 -11   1  -1 1234.48   31.30
 -11   1  -1 1228.88   31.90
  11   1   1 1227.98   30.50
 -11   1  -1 1246.08   28.60
  11   1   1 1189.78   31.70
  13  -1   1   16.60    4.30
 -13  -1  -1   11.40    3.80
  13  -1   1   21.10    5.00
  13  -1   1   25.30    4.70
 -13  -1  -1   12.90    2.00
  13  -1   1   15.30    3.90
 -13  -1  -1   18.50    4.30
 -13   1  -1   12.00    3.80
  13   1   1   20.50    4.20
 -13   1  -1   12.00    4.20
  13   1   1    7.80    3.80
 -13   1  -1   18.90    2.90
  13   1   1   12.40    3.60
  15  -1   1  100.09    9.10
  15  -1   1  108.69   10.30
  15  -1   1  112.89   15.70
  15  -1   1  110.89   12.40
 -15  -1  -1  102.79    9.20
 -15  -1  -1  126.59   10.00
  15   1   1  101.89    9.80
 -15   1  -1   98.29    9.60
 -15   1  -1  110.09   10.40
  15   1   1  111.39   10.50
  17  -1   1   86.19   10.40
 -17  -1  -1   64.89    8.80
 -17  -1  -1   68.39    8.80
  17  -1   1   71.89    9.80
 -17   1  -1   86.39   11.60
  17   1   1   60.89    9.60
 -17   1  -1   96.79   12.70
 -19  -1  -1   73.59   11.50
 -19  -1  -1   82.89   11.00
  19  -1   1   92.59   13.20
  19   1   1   58.09   12.40
 -19   1  -1   90.49   11.70
 -19   1  -1   59.89   11.10
  18  -2  -1  305.37   18.80
 -18  -2   1  332.27   17.70
  18  -2  -1  341.57   19.80
 -18  -2   1  328.17   18.20
  18   2  -1  296.67   20.00
 -18   2   1  325.67   20.30
 -18   2   1  294.97   18.80
 -16  -2   1  330.57   14.80
  16  -2  -1  322.77   16.80
 -16  -2   1  324.87   15.70
  16  -2  -1  319.37   16.40
 -16  -2   1  330.77   15.10
  16  -2  -1  351.36   16.70
 -16   2   1  331.27   17.80
  16   2  -1  323.07   15.30
 -16   2   1  326.67   16.10
  16   2  -1  316.27   16.90
 -16   2   1  316.17   15.90
 -14  -2   1    1.60    4.20
 -14  -2   1    2.10    3.80
  14  -2  -1    1.20    3.90
  14  -2  -1   -5.50    4.50
  14  -2  -1   -1.40    3.80
 -14  -2   1   -2.20    3.40
 -14   2   1    2.70    4.60
 -14   2   1   -2.50    4.50
  14   2  -1    2.40    6.00
 -14   2   1    7.60    4.20
  14   2  -1   -6.50    3.50
 -12  -2   1  112.99    6.90
 -12  -2   1  104.59    7.00
  12  -2  -1  104.29    6.60
 -12  -2   1  105.19    7.20
  12  -2  -1   96.99    7.50
 -12   2   1   94.19    7.70
 -12   2   1  121.19    8.00
 -12   2   1  114.09    8.60
  12   2  -1  116.69    8.30
  10  -2  -1  250.27   10.20
 -10  -2   1  245.68    9.30
 -10  -2   1  244.48    9.20
  10  -2  -1  235.48   10.20
 -10  -2   1  260.07    8.60
 -10  -2   1  251.77    9.70
  10  -2  -1  258.07   10.50
  10  -2  -1  241.48   10.00
  10  -2  -1  250.57    9.10
  10   2  -1  248.48    9.20
 -10   2   1  241.08    9.30
 -10   2   1  259.47   10.80
 -10   2   1  259.57   10.50
  10   2  -1  253.87   10.50
 -10   2   1  241.68    9.90
  10   2  -1  243.18    9.30
  -8  -2   1 3229.28   69.39
   8  -2  -1 3201.68   70.09
  -8  -2   1 3176.68   69.09
   8  -2  -1 3090.39   69.29
   8  -2  -1 3303.67   70.79
  -8  -2   1 3079.89   69.49
   8  -2  -1 3249.57   70.09
   8  -2  -1 3325.37   70.69
  -8  -2   1 3227.38   68.29
  -8   2   1 3191.78   67.09
  -8   2   1 3175.98   68.59
  -8   2   1 3230.38   69.19
   8   2  -1 3346.77   71.09
  -8   2   1 3255.97   70.79
  -8   2   1 3245.38   71.09
  -8   2   1 3210.68   70.39
   8   2  -1 3141.99   69.09
   8   2  -1 3311.37   68.99
   6  -2  -1    4.10    1.50
  -6  -2   1    2.00    1.10
   6  -2  -1    1.10    1.10
  -6  -2   1    1.60    1.10
   6  -2  -1    2.30    1.50
   6  -2  -1    0.80    1.30
  -6  -2   1    2.50    1.10
  -6   2   1    4.60    1.20
  -6   2   1    0.80    1.40
  -6   2   1    2.60    1.70
  -6   2   1    5.20    1.80
  -6   2   1    0.40    1.10
   6   2  -1    1.00    1.10
   6   2  -1    5.20    1.30
   6   2  -1    2.30    1.50
  -6   2   1    2.30    0.80
  -4  -2   1 3051.19   62.79
  -4  -2   1 3047.79   63.19
   4  -2  -1 3161.78   64.19
   4  -2  -1 3081.79   64.39
   4  -2  -1 3025.50   64.49
  -4  -2   1 2876.21   63.59
   4  -2  -1 3001.60   63.09
  -4  -2   1 2938.31   64.09
   4  -2  -1 2943.01   63.79
   4  -2  -1 3020.50   63.99
  -4   2   1 2972.30   64.39
   4   2  -1 3077.59   64.29
  -4   2   1 3021.10   64.59
  -4   2   1 3137.79   64.29
   4   2  -1 2977.20   63.19
  -4   2   1 3015.90   63.09
  -4   2   1 3110.39   63.89
  -2  -2   1  302.97    7.40
   2  -2  -1  313.17    7.60
   2  -2  -1  294.97    7.40
  -2  -2   1  310.87    7.30
  -2  -2   1  308.47    7.60
   2  -2  -1  293.97    7.80
   2  -2  -1  299.87    7.70
   2  -2  -1  304.77    8.00
  -2  -2   1  298.27    7.30
   2  -2  -1  303.47    7.80
  -2  -2   1  297.67    6.90
  -2   2   1  293.07    7.60
   2   2  -1  308.77    7.30
   2   2  -1  303.87    7.60
  -2   2   1  307.37    7.40
   2   2  -1  304.37    6.60
  -2   2   1  296.87    7.70
   2   2  -1  310.17    7.30
  -2   2   1  300.67    7.90
  -2   2   1  303.57    7.90
   2   2  -1  300.87    7.30
   0  -2  -1 1551.74   32.40
   0  -2   1 1556.14   32.70
   0  -2   1 1561.84   32.80
   0  -2   1 1598.24   33.50
   0  -2  -1 1564.74   32.20
   0  -2  -1 1605.34   33.20
   0  -2  -1 1526.85   32.50
   0  -2   1 1576.44   32.90
   0   2  -1 1550.64   32.80
   0   2  -1 1529.15   32.70
   0   2  -1 1547.45   33.40
   0   2   1 1544.65   32.50
   0   2  -1 1531.95   32.90
   0   2   1 1581.64   32.50
   0   2   1 1574.74   33.20
   2  -2   1  139.79    4.50
  -2  -2  -1  146.79    3.40
   2  -2   1  147.89    4.80
  -2  -2  -1  143.99    3.30
  -2  -2  -1  144.99    4.20
   2  -2   1  137.99    4.40
   2  -2   1  145.09    3.60
   2  -2   1  139.29    4.80
  -2  -2  -1  147.39    4.70
   2  -2   1  144.49    4.60
  -2   2  -1  140.09    4.40
  -2   2  -1  137.99    4.50
  -2   2  -1  139.79    4.80
   2   2   1  141.29    3.30
   2   2   1  146.69    3.30
   2   2   1  147.89    3.30
  -4  -2  -1  399.76    9.40
   4  -2   1  398.36   10.80
   4  -2   1  385.56   10.80
   4  -2   1  394.06   10.70
   4  -2   1  395.86   10.50
  -4  -2  -1  405.46    9.50
   4  -2   1  393.36    9.80
   4  -2   1  423.26   10.80
  -4  -2  -1  388.66    9.50
   4  -2   1  401.86   10.90
   4   2   1  401.16    9.40
   4   2   1  405.46    9.30
  -4   2  -1  391.96   10.70
  -4   2  -1  378.26   10.90
  -4   2  -1  399.06   10.60
   4   2   1  357.86    9.60
   4   2   1  401.76    9.20
  -6  -2  -1 2228.48   47.90
   6  -2   1 2203.98   47.00
  -6  -2  -1 2247.78   48.80
  -6  -2  -1 2215.28   47.50
   6  -2   1 2272.97   49.80
  -6  -2  -1 2300.37   48.60
  -6  -2  -1 2235.48   48.40
   6  -2   1 2319.87   50.39
   6  -2   1 2208.28   49.40
   6  -2   1 2352.46   50.19
   6  -2   1 2302.17   49.99
  -6  -2  -1 2362.56   50.19
   6  -2   1 2258.37   49.80
  -6   2  -1 2235.18   50.09
   6   2   1 2267.67   48.30
   6   2   1 2325.57   48.30
   6   2   1 2278.97   48.30
  -6   2  -1 2221.28   50.49
   6   2   1 2260.87   48.50
   6   2   1 2278.87   48.50
   6   2   1 2233.58   50.29
  -6   2  -1 2299.37   49.50
   8  -2   1  243.38    8.80
   8  -2   1  245.18    9.10
  -8  -2  -1  241.98    9.20
  -8  -2  -1  238.78    7.90
  -8  -2  -1  241.58    8.30
  -8  -2  -1  244.08    6.70
   8  -2   1  235.48    9.20
  -8  -2  -1  241.48    8.10
   8  -2   1  233.38    8.80
   8  -2   1  232.08    8.70
  -8  -2  -1  253.07    6.20
   8  -2   1  248.08    9.20
   8  -2   1  240.28    8.70
   8   2   1  236.38    7.90
  -8   2  -1  242.98    9.50
   8   2   1  249.38    8.10
   8   2   1  245.18    7.80
  -8   2  -1  247.68    8.30
  -8   2  -1  228.88    9.00
  -8   2  -1  241.38    8.20
   8   2   1  244.28    9.40
   8   2   1  244.08    7.80
   8   2   1  254.37    7.90
  10  -2   1  217.98    9.80
  10  -2   1  240.48    9.60
  10  -2   1  237.18    9.30
 -10  -2  -1  240.88    8.90
 -10  -2  -1  233.68    9.10
  10  -2   1  217.28    9.50
  10  -2   1  219.48    9.90
 -10  -2  -1  241.98    6.40
  10  -2   1  236.58    9.60
 -10  -2  -1  231.18   10.40
 -10  -2  -1  233.98    8.00
 -10   2  -1  223.28    9.80
 -10   2  -1  242.68    8.50
  10   2   1  242.28    8.60
  10   2   1  243.38    8.50
  10   2   1  223.88    8.80
 -10   2  -1  223.28    9.00
  10   2   1  231.38    8.80
 -10   2  -1  238.88   10.40
  10   2   1  222.58   10.10
  10   2   1  228.58    8.80
 -12  -2  -1  678.13   19.90
 -12  -2  -1  649.93   18.20
 -12  -2  -1  663.93   19.10
  12  -2   1  656.03   20.10
  12  -2   1  654.23   19.10
  12  -2   1  641.74   20.30
  12  -2   1  668.73   20.00
  12   2   1  686.03   21.40
  12   2   1  649.74   19.20
 -12   2  -1  676.13   18.00
  12   2   1  683.63   18.80
  12   2   1  665.23   18.70
 -12   2  -1  673.93   20.70
 -12   2  -1  670.63   21.20
 -14  -2  -1  502.55   24.50
  14  -2   1  560.54   17.90
 -14  -2  -1  545.25   17.90
  14  -2   1  555.24   19.10
  14  -2   1  531.25   19.30
  14  -2   1  564.24   19.60
 -14   2  -1  549.65   16.10
 -14   2  -1  543.65   19.20
  14   2   1  547.65   17.70
 -14   2  -1  557.04   20.50
  14   2   1  585.24   18.10
  16  -2   1   34.50    7.20
  16  -2   1   31.50    6.80
  16  -2   1   22.20    7.40
 -16  -2  -1   17.60    5.70
 -16  -2  -1   21.80    5.90
 -16   2  -1   18.40    6.50
 -16   2  -1   23.30    6.70
  16   2   1   25.00    7.70
  18  -2   1   56.19   10.70
 -18  -2  -1   46.60    8.90
 -18  -2  -1   41.00    8.30
  18  -2   1   53.79   10.70
 -18   2  -1   48.30    9.50
  18   2   1   27.60   10.20
 -18   2  -1   41.50   10.40
 -19  -3   1  605.74   24.70
  19  -3  -1  566.94   26.60
 -19  -3   1  598.24   23.70
  19   3  -1  560.04   27.60
 -19   3   1  580.54   28.80
 -19   3   1  592.14   26.40
  17  -3  -1  128.19   16.50
 -17  -3   1  140.39   12.60
 -17  -3   1  148.69   12.20
  17  -3  -1  159.88   14.20
 -17   3   1  155.18   15.60
  17   3  -1  141.39   14.90
 -17   3   1  149.49   14.30
 -15  -3   1  661.53   20.90
  15  -3  -1  667.83   20.50
  15  -3  -1  620.34   22.90
 -15  -3   1  635.84   21.40
 -15  -3   1  652.63   20.50
  15  -3  -1  696.83   23.00
 -15   3   1  669.63   22.90
 -15   3   1  661.83   23.20
  15   3  -1  659.43   23.70
 -13  -3   1 1052.29   28.70
  13  -3  -1 1083.79   28.00
 -13  -3   1 1062.99   28.10
 -13  -3   1 1068.29   27.80
 -13  -3   1 1087.29   23.80
  13  -3  -1 1068.29   30.10
  13  -3  -1 1056.69   29.50
 -13   3   1 1076.09   30.30
  13   3  -1 1087.29   27.60
 -13   3   1 1079.99   29.90
 -13   3   1 1053.29   31.00
  13   3  -1 1076.69   30.70
 -11  -3   1  520.85   15.90
  11  -3  -1  492.75   17.10
  11  -3  -1  511.85   16.50
  11  -3  -1  534.45   15.90
 -11  -3   1  531.05   14.60
 -11  -3   1  526.45   15.50
 -11  -3   1  523.95   15.20
 -11   3   1  527.85   17.10
  11   3  -1  520.75   17.40
 -11   3   1  510.45   17.20
 -11   3   1  494.85   17.50
  -9  -3   1  202.88    7.60
  -9  -3   1  212.08    7.80
   9  -3  -1  219.38    9.10
   9  -3  -1  217.68    8.60
  -9  -3   1  214.38    7.20
   9  -3  -1  220.28    8.80
   9  -3  -1  209.88    9.20
   9  -3  -1  212.68    9.30
  -9  -3   1  215.58    8.10
   9   3  -1  212.08    9.30
  -9   3   1  221.98    9.70
  -9   3   1  204.98    8.90
  -9   3   1  221.78    8.00
   9   3  -1  223.48    7.80
  -9   3   1  214.98    8.30
  -9   3   1  221.78    9.40
   9   3  -1  210.58    7.80
   7  -3  -1  688.23   18.00
  -7  -3   1  698.13   18.30
   7  -3  -1  676.73   18.40
   7  -3  -1  703.73   18.20
  -7  -3   1  672.53   16.70
   7  -3  -1  718.03   18.80
  -7  -3   1  708.43   16.20
  -7  -3   1  707.63   17.00
  -7  -3   1  676.53   17.10
  -7   3   1  700.53   17.40
   7   3  -1  684.43   18.50
   7   3  -1  686.03   16.90
  -7   3   1  657.93   18.80
  -7   3   1  686.63   17.50
  -7   3   1  672.53   18.30
   7   3  -1  691.83   16.70
  -7   3   1  671.33   18.60
  -7   3   1  697.73   16.20
   5  -3  -1 2968.20   65.39
  -5  -3   1 3083.19   63.29
   5  -3  -1 2970.70   65.69
   5  -3  -1 2914.11   64.59
  -5  -3   1 2872.31   63.89
  -5  -3   1 3172.08   65.39
  -5  -3   1 3109.19   62.79
  -5  -3   1 2953.30   64.09
  -5  -3   1 2989.80   63.79
   5  -3  -1 3121.19   65.39
   5  -3  -1 3024.80   63.99
   5   3  -1 2994.10   63.99
   5   3  -1 3099.69   65.59
  -5   3   1 3110.99   64.59
  -5   3   1 3114.59   65.89
  -5   3   1 3084.69   65.19
   5   3  -1 3063.69   63.89
  -5   3   1 3062.99   65.89
  -5   3   1 3092.89   65.79
  -5   3   1 3106.79   64.19
   3  -3  -1  895.31   21.60
  -3  -3   1  949.51   21.30
   3  -3  -1  944.51   21.40
  -3  -3   1  936.01   20.60
   3  -3  -1  959.50   21.20
   3  -3  -1  943.61   21.00
  -3  -3   1  908.91   20.40
  -3  -3   1  929.21   19.90
  -3  -3   1  939.21   20.70
   3  -3  -1  863.21   22.40
   3  -3  -1  964.70   22.00
   3   3  -1  923.01   21.30
  -3   3   1  948.81   21.20
   3   3  -1  937.71   20.40
  -3   3   1  960.70   20.90
   3   3  -1  953.10   20.50
  -3   3   1  944.51   21.50
  -3   3   1  959.40   21.80
  -3   3   1  930.11   21.90
   3   3  -1  938.01   20.40
  -3   3   1  951.70   21.90
   1  -3  -1  156.78    4.20
   1  -3  -1  161.48    4.50
  -1  -3   1  156.48    4.20
  -1  -3   1  153.38    4.20
  -1  -3   1  153.48    4.30
  -1  -3   1  153.78    4.40
   1  -3  -1  154.48    4.60
   1  -3  -1  154.88    5.00
   1  -3  -1  153.18    4.60
  -1  -3   1  162.68    5.10
   1   3  -1  153.98    4.90
   1   3  -1  152.28    4.30
  -1   3   1  158.58    4.60
   1   3  -1  161.08    3.60
   1   3  -1  155.18    4.30
  -1   3   1  154.28    4.00
  -1   3   1  157.88    5.00
   1   3  -1  156.88    3.60
   1   3  -1  161.28    4.30
  -1   3   1  157.38    4.50
   1  -3   1 2263.17   48.30
  -1  -3  -1 2258.57   48.40
  -1  -3  -1 2476.85   47.70
   1  -3   1 2235.58   48.20
   1  -3   1 2263.27   49.00
   1  -3   1 2256.87   47.80
  -1  -3  -1 2480.75   47.90
   1  -3   1 2255.97   48.10
   1   3   1 2266.17   46.80
  -1   3  -1 2188.58   48.20
  -1   3  -1 2290.47   48.90
  -1   3  -1 2220.68   48.10
  -1   3  -1 2213.68   47.70
  -1   3  -1 2247.08   48.10
   3  -3   1 3588.84   76.49
   3  -3   1 3583.04   76.79
   3  -3   1 3686.73   76.39
   3  -3   1 3602.74   77.29
   3  -3   1 3228.08   76.99
   3  -3   1 3684.43   74.89
  -3  -3  -1 4026.30   75.49
  -3  -3  -1 3761.62   75.89
  -3  -3  -1 3254.37   77.29
   3  -3   1 3675.03   76.59
  -3   3  -1 3703.93   76.59
  -3   3  -1 3703.83   76.99
   5  -3   1 1741.73   38.90
   5  -3   1 1764.92   38.40
  -5  -3  -1 1679.83   36.20
   5  -3   1 1702.63   36.60
  -5  -3  -1 1695.53   38.50
   5  -3   1 1778.02   38.40
   5  -3   1 1715.53   38.80
  -5  -3  -1 1782.92   37.00
   5  -3   1 1739.13   37.10
   5  -3   1 1555.34   40.20
  -5  -3  -1 1682.23   36.40
   5  -3   1 1756.12   38.60
   5   3   1 1706.33   36.00
  -5   3  -1 1754.52   37.50
   5   3   1 1742.33   38.80
  -5   3  -1 1771.72   38.50
   5   3   1 1690.93   35.90
   5   3   1 1742.83   36.10
  -5   3  -1 1740.93   39.10
   5   3   1 1624.94   36.10
  -5   3  -1 1742.03   38.70
   5   3   1 1504.05   36.00
   7  -3   1   70.29    4.80
   7  -3   1   63.59    4.70
  -7  -3  -1   66.29    3.30
   7  -3   1   67.29    2.80
  -7  -3  -1   69.69    3.10
   7  -3   1   68.49    4.60
   7  -3   1   62.59    4.00
  -7  -3  -1   62.49    4.80
   7  -3   1   67.29    4.40
  -7  -3  -1   64.89    3.60
   7  -3   1   64.49    4.80
  -7  -3  -1   68.19    3.10
   7   3   1   70.09    3.30
  -7   3  -1   70.19    4.30
  -7   3  -1   68.19    5.00
  -7   3  -1   60.39    4.30
   7   3   1   68.19    3.40
   7   3   1   64.29    4.80
  -7   3  -1   66.69    4.80
   7   3   1   68.09    3.40
   9  -3   1 1917.91   44.70
  -9  -3  -1 1931.01   40.40
   9  -3   1 1883.31   44.90
   9  -3   1 1922.71   44.50
   9  -3   1 1920.51   44.50
   9  -3   1 1917.41   45.10
   9  -3   1 1925.21   44.40
  -9  -3  -1 1904.91   43.10
  -9  -3  -1 1891.51   40.90
   9  -3   1 1888.61   43.70
  -9  -3  -1 1909.91   44.90
  -9  -3  -1 1958.30   42.60
  -9   3  -1 1919.51   43.40
  -9   3  -1 1886.41   45.00
   9   3   1 1937.31   42.40
   9   3   1 1949.80   42.20
   9   3   1 1922.21   42.10
  -9   3  -1 1879.01   45.50
   9   3   1 1828.62   45.00
  -9   3  -1 1952.00   43.60
   9   3   1 1911.01   42.90
 -11  -3  -1  906.81   24.00
 -11  -3  -1  927.31   22.70
  11  -3   1  904.31   25.50
  11  -3   1  935.21   24.80
 -11  -3  -1  915.51   23.50
  11  -3   1  914.01   24.90
 -11  -3  -1  963.30   20.60
  11  -3   1  898.21   25.10
 -11   3  -1  925.21   23.80
  11   3   1  933.01   26.20
 -11   3  -1  942.81   26.00
 -11   3  -1  874.31   26.20
  11   3   1  934.01   23.00
  11   3   1  935.21   23.00
 -13  -3  -1  165.78    9.00
  13  -3   1  158.88   10.10
  13  -3   1  180.18   10.90
  13  -3   1  179.68   10.10
 -13  -3  -1  168.58    8.70
  13  -3   1  161.48    9.90
 -13   3  -1  169.68    8.60
  13   3   1  179.88   11.10
 -13   3  -1  185.38   11.40
 -13   3  -1  182.78   10.40
  13   3   1  176.18    8.70
  13   3   1  170.08    8.70
  15  -3   1   15.00    6.00
  15  -3   1    5.70    5.20
  15  -3   1   -1.00    5.00
 -15  -3  -1    9.50    4.30
 -15  -3  -1    5.00    4.30
  15  -3   1    6.90    5.80
 -15   3  -1    7.80    6.20
  15   3   1    3.00    5.70
 -15   3  -1    5.70    5.20
 -17  -3  -1  358.26   17.10
  17  -3   1  358.76   18.80
  17  -3   1  365.36   18.80
 -17  -3  -1  363.16   16.30
  17   3   1  350.56   19.70
 -17   3  -1  377.86   18.80
 -17   3  -1  375.66   20.60
 -19  -3  -1  482.45   23.70
  19  -3   1  528.25   24.80
 -19   3  -1  516.45   24.70
 -18  -4   1  571.84   22.70
  18  -4  -1  577.34   24.70
  18  -4  -1  574.34   26.20
 -18  -4   1  585.84   22.00
 -18   4   1  572.04   27.60
  18   4  -1  579.04   26.50
 -18   4   1  603.14   25.80
  16  -4  -1  688.03   25.00
  16  -4  -1  646.14   22.30
  16  -4  -1  674.93   23.80
 -16  -4   1  653.63   22.20
  16  -4  -1  592.04   34.00
 -16  -4   1  627.94   20.70
 -16  -4   1  642.34   21.10
 -16   4   1  656.73   24.50
 -16   4   1  659.23   25.80
  16   4  -1  680.53   25.50
  14  -4  -1  159.78   12.00
 -14  -4   1  142.89    9.00
  14  -4  -1  163.18   10.40
 -14  -4   1  148.89    8.50
  14  -4  -1  137.39   10.90
  14  -4  -1  143.49   10.30
 -14  -4   1  135.79    9.00
  14   4  -1  124.79   11.10
 -14   4   1  142.59   12.20
 -14   4   1  131.79   10.90
 -12  -4   1  804.92   21.50
 -12  -4   1  800.42   22.30
  12  -4  -1  810.72   23.40
 -12  -4   1  798.72   21.70
  12  -4  -1  797.72   24.20
 -12  -4   1  810.62   21.00
  12  -4  -1  812.62   23.20
 -12   4   1  769.42   24.20
  12   4  -1  826.92   21.30
  12   4  -1  836.42   24.90
 -12   4   1  840.82   24.40
 -12   4   1  811.62   25.40
 -10  -4   1 1925.51   43.20
  10  -4  -1 1832.12   45.00
 -10  -4   1 1941.01   43.00
  10  -4  -1 1900.21   44.90
 -10  -4   1 1973.90   42.40
  10  -4  -1 1887.61   46.00
  10  -4  -1 1911.71   44.60
 -10  -4   1 1950.30   43.80
 -10   4   1 1945.91   45.80
 -10   4   1 1885.41   46.00
  10   4  -1 1867.71   45.90
  10   4  -1 1882.01   42.80
 -10   4   1 1972.50   46.80
 -10   4   1 1885.71   43.90
  -8  -4   1  946.71   22.60
   8  -4  -1  959.10   24.00
  -8  -4   1 1032.10   25.00
  -8  -4   1  950.60   23.10
   8  -4  -1  974.30   25.30
   8  -4  -1  946.41   24.70
  -8  -4   1  994.40   22.20
   8  -4  -1  985.10   24.80
   8  -4  -1  995.00   22.40
   8  -4  -1  907.71   24.80
  -8   4   1  938.61   24.90
  -8   4   1  917.41   25.10
  -8   4   1  978.80   25.70
  -8   4   1  963.70   23.70
   8   4  -1  961.30   25.20
   8   4  -1  981.80   22.70
  -8   4   1  986.60   24.20
   8   4  -1  968.60   22.90
   6  -4  -1   73.79    3.70
   6  -4  -1   69.79    4.70
  -6  -4   1   79.99    4.70
   6  -4  -1   74.99    4.10
  -6  -4   1   72.49    3.50
  -6  -4   1   77.49    3.00
  -6  -4   1   74.49    3.40
  -6  -4   1   76.79    3.40
   6  -4  -1   81.39    5.00
  -6  -4   1   77.39    2.70
   6  -4  -1   86.69    4.80
  -6   4   1   71.89    4.70
  -6   4   1   75.09    4.90
   6   4  -1   74.89    4.80
  -6   4   1   75.39    4.90
  -6   4   1   77.89    4.60
   6   4  -1   77.89    3.50
   6   4  -1   76.19    3.60
  -6   4   1   78.49    4.20
   4  -4  -1  565.94   15.50
   4  -4  -1  581.94   15.20
   4  -4  -1  565.54   14.40
   4  -4  -1  586.84   14.50
   4  -4  -1  600.14   14.90
   4  -4  -1  587.04   15.10
  -4  -4   1  570.74   13.70
  -4  -4   1  591.84   14.80
  -4  -4   1  594.54   12.90
  -4  -4   1  581.84   13.80
  -4   4   1  561.44   15.20
   4   4  -1  577.84   13.60
   4   4  -1  582.04   13.40
  -4   4   1  594.34   15.40
  -4   4   1  605.34   14.20
  -4   4   1  570.44   15.20
   4   4  -1  589.04   13.20
   4   4  -1  556.44   14.80
   2  -4  -1 1605.24   36.30
   2  -4  -1 1619.34   35.00
   2  -4  -1 1569.34   35.30
   2  -4  -1 1633.64   35.50
  -2  -4   1 1584.94   34.20
  -2  -4   1 1621.84   34.80
  -2  -4   1 1607.94   33.80
   2  -4  -1 1637.04   35.40
  -2  -4   1 1606.74   35.40
   2  -4  -1 1596.14   34.60
  -2   4   1 1638.24   36.00
  -2   4   1 1652.23   34.30
  -2   4   1 1603.84   35.10
   2   4  -1 1597.44   34.80
  -2   4   1 1613.14   35.30
   2   4  -1 1584.24   34.00
   2   4  -1 1665.73   35.30
   2   4  -1 1608.84   34.10
   0  -4   1 1873.61   39.40
   0  -4  -1 1869.41   39.70
   0  -4  -1 1873.31   39.90
   0  -4  -1 1932.81   41.50
   0  -4   1 1803.22   40.10
   0  -4   1 1962.70   40.50
   0  -4   1 1927.11   40.00
   0  -4  -1 1899.21   39.80
   0  -4   1 1858.01   41.50
   0  -4  -1 1926.01   39.30
   0  -4  -1 1937.01   41.20
   0   4  -1 1816.32   39.50
   0   4   1 1875.81   39.80
   0   4   1 1945.61   39.90
   0   4  -1 1916.81   41.60
   0   4  -1 1889.61   40.20
   0   4  -1 1900.51   39.30
   0   4  -1 1800.72   40.20
  -2  -4  -1  198.08    6.40
   2  -4   1  196.08    7.10
   2  -4   1  195.98    6.40
   2  -4   1  193.28    6.20
  -2  -4  -1  205.18    6.50
   2  -4   1  194.98    6.20
   2  -4   1  195.58    6.60
   2  -4   1  185.78    6.40
  -2  -4  -1  196.68    6.30
  -2   4  -1  199.88    5.70
  -2   4  -1  194.48    6.30
  -2   4  -1  201.48    5.80
   4  -4   1  407.26   12.60
   4  -4   1  450.45   12.30
   4  -4   1  437.96   12.20
   4  -4   1  428.16   12.10
   4  -4   1  443.26   10.40
   4  -4   1  447.36   12.50
  -4  -4  -1  400.56   11.90
  -4  -4  -1  433.26   11.40
   4  -4   1  409.46   11.80
  -4   4  -1  442.46   12.60
  -4   4  -1  439.56   11.30
  -4   4  -1  423.16   12.20
  -4   4  -1  447.86   12.60
  -6  -4  -1 4662.03   98.69
   6  -4   1 4792.92   99.29
   6  -4   1 4745.53  101.69
   6  -4   1 4810.92  102.09
   6  -4   1 4610.44  101.19
   6  -4   1 4849.31  101.39
   6  -4   1 4793.12  102.19
   6  -4   1 4674.33   99.69
  -6  -4  -1 4866.91   99.79
   6  -4   1 4787.02  101.59
  -6  -4  -1 4988.40  101.79
  -6  -4  -1 4705.13   98.29
   6   4   1 4709.43   98.19
  -6   4  -1 4793.22  100.29
  -6   4  -1 4759.42  101.79
  -6   4  -1 4901.81  101.69
   6   4   1 4817.12   97.79
   6   4   1 4801.62   98.19
   6   4   1 4741.23  101.79
  -6   4  -1 4675.33  102.69
   6   4   1 4599.84   97.99
   8  -4   1 1109.89   28.60
   8  -4   1 1143.39   25.10
   8  -4   1 1079.49   28.00
   8  -4   1 1148.29   28.60
   8  -4   1 1140.79   28.80
   8  -4   1 1096.99   28.00
  -8  -4  -1 1112.59   25.00
  -8  -4  -1 1142.99   25.70
  -8  -4  -1 1137.39   25.50
   8  -4   1 1125.59   28.40
   8  -4   1 1116.29   26.80
  -8  -4  -1 1105.19   25.90
  -8  -4  -1 1137.29   28.60
  -8   4  -1 1131.09   27.20
   8   4   1 1130.99   25.30
  -8   4  -1 1088.09   28.50
   8   4   1 1162.78   25.00
  -8   4  -1 1111.89   27.80
   8   4   1 1106.19   28.70
   8   4   1 1124.69   25.20
  -8   4  -1 1165.48   29.40
 -10  -4  -1  135.39    5.40
  10  -4   1  120.59    7.80
 -10  -4  -1  123.19    6.20
 -10  -4  -1  128.39    5.00
  10  -4   1  130.69    7.00
  10  -4   1  120.59    7.50
 -10  -4  -1  132.39    6.00
  10  -4   1  112.19    8.10
  10  -4   1  126.19    7.90
 -10   4  -1  123.59    7.10
  10   4   1  126.19    8.20
  10   4   1  128.19    5.50
 -10   4  -1  131.79    8.60
 -10   4  -1  110.99    7.70
  10   4   1  125.69    6.00
 -12  -4  -1  301.27    8.40
 -12  -4  -1  303.37   10.30
 -12  -4  -1  308.07   10.80
  12  -4   1  308.87   13.00
 -12  -4  -1  319.87   11.50
  12  -4   1  278.57   11.90
  12  -4   1  300.77   13.10
  12  -4   1  300.27   13.30
 -12   4  -1  306.17   14.30
  12   4   1  301.37   10.40
 -12   4  -1  300.57   13.20
  12   4   1  300.97   13.70
  12   4   1  304.07   10.50
 -12   4  -1  296.47   11.80
 -14  -4  -1  595.24   18.00
  14  -4   1  586.04   20.30
 -14  -4  -1  577.44   18.70
  14  -4   1  602.34   19.90
  14  -4   1  592.44   21.20
  14  -4   1  570.44   20.50
 -14   4  -1  538.65   26.90
  14   4   1  584.24   17.50
  14   4   1  574.74   21.70
 -14   4  -1  610.94   22.40
 -16  -4  -1  560.64   20.30
 -16  -4  -1  603.64   19.60
  16  -4   1  601.34   22.30
  16  -4   1  597.54   23.10
  16  -4   1  602.74   23.70
  16  -4   1  587.94   22.00
 -16   4  -1  582.44   24.60
 -16   4  -1  599.14   23.10
  16   4   1  576.64   23.90
  18  -4   1  116.49   13.90
 -18  -4  -1  136.89   17.50
  18  -4   1  125.19   13.50
 -18  -4  -1  122.19   13.10
 -18   4  -1  106.89   12.80
 -18   4  -1  134.59   18.00
  17  -5  -1   16.10    7.60
 -17  -5   1   13.00    6.60
  17  -5  -1   24.40    9.00
 -17  -5   1   18.30    6.40
 -17   5   1   24.60    9.00
  17   5  -1   31.20   10.20
 -17   5   1   20.90    8.50
 -15  -5   1  619.94   18.70
 -15  -5   1  601.44   19.70
  15  -5  -1  595.44   21.40
  15  -5  -1  598.84   23.30
 -15  -5   1  589.74   18.90
 -15   5   1  598.14   24.20
 -15   5   1  605.84   22.90
  15   5  -1  543.25   22.60
  13  -5  -1 1429.66   37.30
 -13  -5   1 1249.28   40.30
 -13  -5   1 1420.76   32.80
  13  -5  -1 1421.76   36.70
  13  -5  -1 1441.46   37.90
 -13  -5   1 1392.56   34.10
  13  -5  -1 1468.35   38.70
 -13  -5   1 1450.25   34.70
 -13   5   1 1497.75   38.50
 -13   5   1 1433.26   38.60
 -13   5   1 1413.06   39.50
  13   5  -1 1429.56   34.40
 -11  -5   1  793.12   20.20
  11  -5  -1  775.62   23.60
  11  -5  -1  793.02   23.20
  11  -5  -1  757.32   23.80
 -11  -5   1  823.92   21.20
 -11  -5   1  790.12   20.50
  11  -5  -1  797.02   22.30
 -11  -5   1  801.22   19.90
  11   5  -1  811.82   20.30
 -11   5   1  750.12   23.20
 -11   5   1  783.72   24.50
 -11   5   1  809.92   23.90
  11   5  -1  778.12   23.80
  -9  -5   1  120.19    5.00
   9  -5  -1  117.19    7.70
  -9  -5   1  108.79    7.60
  -9  -5   1  121.79    5.50
   9  -5  -1  108.19    7.20
   9  -5  -1  122.89    7.50
  -9  -5   1  119.19    5.60
  -9  -5   1  114.59    5.20
   9  -5  -1  126.09    5.50
   9  -5  -1  123.69    6.60
   9   5  -1  119.89    7.70
  -9   5   1  113.89    6.80
  -9   5   1  107.69    6.80
   9   5  -1  122.69    5.80
  -9   5   1  115.89    7.50
  -9   5   1  124.29    8.10
   9   5  -1  116.79    5.60
  -9   5   1  118.79    7.60
  -7  -5   1  965.70   22.20
   7  -5  -1  911.51   24.90
  -7  -5   1  984.70   22.70
   7  -5  -1 1040.90   25.00
   7  -5  -1 1011.40   23.30
   7  -5  -1  970.50   25.40
   7  -5  -1  959.80   25.30
  -7  -5   1  902.31   24.00
  -7  -5   1  994.70   22.40
  -7  -5   1  974.50   21.50
  -7  -5   1  971.50   24.70
  -7   5   1 1001.50   25.90
  -7   5   1  972.00   25.10
  -7   5   1  990.20   23.80
   7   5  -1  989.60   22.40
   7   5  -1  991.90   25.20
   7   5  -1  966.10   22.00
  -7   5   1  978.10   25.40
  -7   5   1 1006.40   25.00
   5  -5  -1 3324.37   71.99
   5  -5  -1 3285.37   72.49
   5  -5  -1 3402.86   71.49
   5  -5  -1 3356.96   71.79
  -5  -5   1 3238.18   69.79
  -5  -5   1 3195.68   69.39
  -5  -5   1 3275.47   68.59
  -5  -5   1 3210.98   68.99
  -5  -5   1 3510.25   71.49
   5  -5  -1 3298.07   70.69
   5  -5  -1 3222.18   70.69
  -5   5   1 3440.56   71.79
  -5   5   1 3373.16   70.39
  -5   5   1 3311.37   71.99
  -5   5   1 3326.47   71.99
   5   5  -1 3266.87   71.59
   5   5  -1 3317.37   68.69
  -5   5   1 3264.77   72.19
   5   5  -1 3339.27   68.99
  -3  -5   1 2275.17   48.70
  -3  -5   1 2273.57   50.09
   3  -5  -1 2333.47   51.59
   3  -5  -1 2321.97   49.60
  -3  -5   1 2221.88   50.89
   3  -5  -1 2353.66   50.09
   3  -5  -1 2404.86   50.59
  -3  -5   1 2292.97   48.10
   3  -5  -1 2336.07   50.39
   3  -5  -1 2343.37   50.59
  -3  -5   1 2277.57   48.90
  -3   5   1 2250.67   50.39
  -3   5   1 2393.76   50.39
   3   5  -1 2346.17   49.90
  -3   5   1 2318.57   50.69
   3   5  -1 2227.68   51.09
   3   5  -1 2350.86   48.30
   3   5  -1 2307.17   48.40
  -3   5   1 2342.67   51.19
   1  -5  -1  679.93   15.70
   1  -5  -1  684.03   16.10
  -1  -5   1  681.73   15.30
  -1  -5   1  675.93   15.40
   1  -5  -1  667.83   15.90
  -1  -5   1  653.13   15.50
  -1  -5   1  639.74   17.00
   1  -5  -1  654.43   17.40
  -1  -5   1  663.13   15.60
  -1  -5   1  683.23   15.60
   1  -5  -1  687.63   17.00
   1  -5  -1  659.13   15.30
   1   5  -1  697.53   17.00
  -1   5   1  681.83   16.10
  -1   5   1  661.73   14.40
   1   5  -1  674.83   15.40
  -1   5   1  679.83   15.80
   1   5  -1  693.73   15.40
  -1   5   1  677.63   14.50
  -1   5   1  655.33   15.90
   1  -5   1 1088.69   25.10
   1  -5   1 1092.19   24.90
   1  -5   1 1088.69   25.10
  -1  -5  -1 1087.79   26.00
  -1  -5  -1 1113.19   23.50
  -1  -5  -1 1108.59   23.60
  -1  -5  -1 1124.19   23.90
  -1  -5  -1 1154.08   25.90
  -1  -5  -1 1092.79   23.50
   1  -5   1 1085.39   26.50
   1  -5   1 1085.69   25.40
  -1   5  -1 1117.69   25.20
   1   5   1 1086.39   23.60
  -1   5  -1 1121.49   24.90
  -1   5  -1 1076.39   24.20
  -1   5  -1 1129.69   26.30
  -1   5  -1 1132.79   24.00
   3  -5   1 4000.00   84.79
  -3  -5  -1 4154.68   84.59
   3  -5   1 3987.20   84.19
   3  -5   1 3937.31   84.39
   3  -5   1 3821.32   84.09
   3  -5   1 3916.71   84.39
  -3  -5  -1 4063.29   84.39
   3  -5   1 3948.30   85.69
  -3   5  -1 3910.11   84.49
  -3   5  -1 3883.21   83.29
  -3   5  -1 4057.59   83.19
  -3   5  -1 4009.80   85.29
   5  -5   1 1166.68   28.80
   5  -5   1 1174.18   27.70
   5  -5   1 1153.38   25.50
  -5  -5  -1 1182.88   27.00
   5  -5   1 1087.79   27.70
   5  -5   1 1171.68   26.60
  -5  -5  -1 1177.38   27.90
   5  -5   1 1178.18   28.00
   5  -5   1 1073.49   27.40
   5  -5   1 1225.68   28.60
  -5  -5  -1 1170.58   26.30
  -5   5  -1 1116.29   28.10
  -5   5  -1 1162.28   28.50
  -5   5  -1 1169.98   26.60
  -5   5  -1 1065.99   27.80
  -7  -5  -1   28.00    3.10
  -7  -5  -1   28.90    1.90
  -7  -5  -1   32.20    4.10
   7  -5   1   24.40    2.90
   7  -5   1   25.70    4.00
  -7  -5  -1   26.70    2.30
   7  -5   1   25.30    3.40
   7  -5   1   25.50    3.20
  -7  -5  -1   27.40    2.40
   7  -5   1   21.20    3.20
   7  -5   1   26.90    3.10
   7  -5   1   30.90    4.10
   7  -5   1   30.90    4.30
  -7   5  -1   30.80    3.60
   7   5   1   29.90    1.90
  -7   5  -1   19.80    3.40
  -7   5  -1   24.60    3.70
  -7   5  -1   29.90    4.10
  -9  -5  -1  989.50   23.40
   9  -5   1  986.90   24.40
  -9  -5  -1  957.50   22.20
   9  -5   1 1006.30   26.30
   9  -5   1 1000.50   22.80
  -9  -5  -1  986.40   23.30
   9  -5   1  967.00   26.80
   9  -5   1  989.20   26.90
  -9  -5  -1  993.20   22.60
   9  -5   1  982.70   26.10
   9  -5   1  979.50   26.60
  -9  -5  -1  994.40   21.80
   9   5   1 1011.20   27.00
   9   5   1 1001.60   22.30
   9   5   1  971.60   22.40
  -9   5  -1  941.31   27.10
   9   5   1 1002.90   21.80
  -9   5  -1  939.81   26.50
  -9   5  -1  974.20   25.90
   9   5   1  949.80   22.10
  11  -5   1 1771.32   45.00
  11  -5   1 1972.20   51.69
 -11  -5  -1 1829.42   41.90
  11  -5   1 1826.62   43.10
  11  -5   1 1837.62   45.20
 -11  -5  -1 1826.92   41.00
 -11  -5  -1 1842.12   40.60
  11  -5   1 1807.52   44.70
 -11  -5  -1 1827.52   40.60
 -11   5  -1 1802.42   45.40
  11   5   1 1886.81   41.10
  11   5   1 1778.52   45.60
  11   5   1 1867.11   40.00
 -11   5  -1 1831.22   46.30
 -11   5  -1 1721.93   43.60
 -13  -5  -1 1110.19   25.10
  13  -5   1 1085.79   31.10
 -13  -5  -1 1097.99   27.10
  13  -5   1 1125.19   31.10
  13  -5   1 1095.59   31.50
 -13  -5  -1 1056.39   27.50
  13  -5   1 1125.09   29.60
 -13   5  -1 1084.99   32.60
  13   5   1 1130.49   26.30
 -13   5  -1 1059.69   31.60
  13   5   1  993.30   32.20
  15  -5   1    8.00    6.60
  15  -5   1    0.40    6.40
 -15  -5  -1   -4.80    4.00
  15  -5   1    7.70    5.00
 -15  -5  -1   -5.60    3.80
  15  -5   1    6.80    9.10
 -15   5  -1    0.20    5.70
  15   5   1   -4.50    6.10
 -15   5  -1   14.10    6.90
  17  -5   1 1583.64   45.10
  17  -5   1 1634.94   44.00
  17  -5   1 1634.74   52.69
 -17  -5  -1 1551.54   41.40
 -17   5  -1 1550.04   45.60
 -17   5  -1 1551.64   47.30
  18  -6  -1  430.16   22.20
  18  -6  -1  418.36   24.20
 -18  -6   1  414.46   18.40
  18   6  -1  441.06   25.00
 -18   6   1  386.06   23.00
 -18   6   1  368.16   26.00
  16  -6  -1  277.77   17.30
  16  -6  -1  258.77   15.40
  16  -6  -1  282.37   17.60
 -16  -6   1  270.47   13.60
 -16  -6   1  255.57   12.80
  16  -6  -1  263.87   18.50
 -16   6   1  271.47   17.50
  16   6  -1  265.67   17.80
 -16   6   1  264.57   19.30
 -14  -6   1  374.96   13.10
  14  -6  -1  366.86   17.70
 -14  -6   1  372.46   13.10
 -14  -6   1  350.56   13.50
  14  -6  -1  340.67   15.10
  14  -6  -1  385.06   17.00
  14  -6  -1  347.77   17.30
  14   6  -1  362.66   17.50
 -14   6   1  330.87   17.80
 -14   6   1  358.26   17.30
 -12  -6   1  106.39    6.60
  12  -6  -1  102.19    9.50
 -12  -6   1  113.29    6.60
  12  -6  -1  104.39    9.10
  12  -6  -1   97.39    9.60
 -12  -6   1  123.19    7.10
 -12  -6   1  107.89    6.70
 -12  -6   1  100.79    6.10
  12  -6  -1  109.29    8.20
 -12   6   1  119.29   10.80
 -12   6   1  107.89    9.60
  12   6  -1   90.19    9.40
  12   6  -1  114.39    6.50
 -12   6   1  119.19    9.60
 -10  -6   1 3356.76   71.79
  10  -6  -1 3362.66   72.49
  10  -6  -1 3313.57   76.39
 -10  -6   1 3302.77   72.69
  10  -6  -1 3327.97   76.69
  10  -6  -1 3421.26   76.79
 -10  -6   1 3332.77   71.99
  10  -6  -1 3338.07   74.29
 -10  -6   1 3503.45   71.89
 -10   6   1 3404.96   77.79
 -10   6   1 3363.16   77.49
  10   6  -1 3374.96   76.59
  10   6  -1 3458.95   71.09
  10   6  -1 3295.77   73.59
 -10   6   1 3460.95   76.49
 -10   6   1 3306.97   76.79
  -8  -6   1 1805.52   43.40
   8  -6  -1 1913.21   43.80
   8  -6  -1 1904.61   41.70
  -8  -6   1 1844.62   40.70
  -8  -6   1 1852.21   40.10
  -8  -6   1 1873.61   39.90
  -8  -6   1 1912.61   39.60
   8  -6  -1 1844.12   44.40
   8  -6  -1 1814.82   44.50
  -8  -6   1 1918.51   40.40
   8   6  -1 1823.92   40.10
  -8   6   1 1773.92   44.20
   8   6  -1 1796.62   43.90
  -8   6   1 1854.91   44.00
  -8   6   1 1855.71   45.00
  -8   6   1 1823.22   42.20
  -8   6   1 1852.11   43.80
   8   6  -1 1836.72   39.40
  -6  -6   1   29.60    3.60
   6  -6  -1   25.00    3.20
  -6  -6   1   24.00    1.90
   6  -6  -1   31.00    3.80
   6  -6  -1   31.60    4.20
  -6  -6   1   28.40    2.40
  -6  -6   1   25.90    2.10
   6  -6  -1   31.00    4.00
  -6  -6   1   27.50    2.00
   6  -6  -1   18.40    3.50
  -6  -6   1   23.80    2.50
  -6   6   1   20.00    3.10
  -6   6   1   25.70    3.70
  -6   6   1   22.70    2.90
   6   6  -1   25.20    1.80
   6   6  -1   27.20    2.30
   6   6  -1   25.70    3.50
  -6   6   1   29.60    4.00
  -6   6   1   26.20    3.60
   4  -6  -1  591.14   16.20
  -4  -6   1  618.94   15.80
  -4  -6   1  602.94   14.40
  -4  -6   1  608.44   14.00
   4  -6  -1  554.54   17.10
   4  -6  -1  620.54   16.10
   4  -6  -1  583.24   15.40
  -4  -6   1  596.84   15.90
   4  -6  -1  632.44   16.30
   4  -6  -1  615.34   16.60
  -4  -6   1  629.14   13.60
  -4   6   1  594.64   16.60
   4   6  -1  615.24   13.70
   4   6  -1  611.44   13.30
   4   6  -1  636.34   15.60
  -4   6   1  576.04   16.30
  -4   6   1  614.74   16.20
   4   6  -1  601.44   16.00
  -4   6   1  607.84   14.90
  -4   6   1  584.64   16.90
   2  -6  -1 5186.18  106.49
   2  -6  -1 5125.99  109.19
  -2  -6   1 4973.40  106.09
   2  -6  -1 5107.89  106.89
   2  -6  -1 5189.08  107.19
   2  -6  -1 5304.97  108.29
  -2  -6   1 4921.11  108.09
  -2  -6   1 5115.99  105.99
  -2  -6   1 4836.82  105.89
  -2  -6   1 5344.57  106.69
   2  -6  -1 5102.39  107.49
  -2  -6   1 5081.59  105.69
   2   6  -1 5261.07  107.89
   2   6  -1 5123.49  105.59
  -2   6   1 4990.50  105.49
  -2   6   1 5056.99  105.39
  -2   6   1 5171.28  108.69
   2   6  -1 5212.98  105.69
   0  -6   1 1228.18   28.10
   0  -6  -1 1279.77   29.50
   0  -6   1 1213.48   28.00
   0  -6   1 1260.77   27.00
   0  -6   1 1195.68   29.80
   0  -6  -1 1254.17   29.90
   0  -6   1 1241.28   28.40
   0  -6  -1 1289.37   27.30
   0  -6  -1 1232.18   27.50
   0  -6  -1 1225.08   27.30
   0  -6   1 1208.28   27.80
   0  -6  -1 1280.17   27.50
   0  -6  -1 1259.87   27.70
   0  -6  -1 1260.87   26.90
   0   6  -1 1252.47   27.70
   0   6  -1 1303.27   29.80
   0   6   1 1231.48   27.50
   2  -6   1   11.60    2.30
   2  -6   1   21.90    2.50
  -2  -6  -1   15.20    1.10
   2  -6   1   13.60    2.10
  -2  -6  -1   20.60    2.60
  -2  -6  -1   17.10    1.20
  -2  -6  -1   18.20    1.40
   2  -6   1   14.50    2.10
  -2  -6  -1   13.50    2.20
  -2  -6  -1   16.40    1.40
   2  -6   1   18.60    2.60
   2  -6   1   18.50    2.50
  -2  -6  -1   12.10    2.40
  -2   6  -1   21.70    2.80
  -2   6  -1   18.60    2.10
  -2   6  -1   19.50    3.00
  -2   6  -1   16.30    2.00
  -4  -6  -1   62.09    4.00
  -4  -6  -1   65.79    4.50
   4  -6   1   59.59    4.20
  -4  -6  -1   70.09    4.40
   4  -6   1   69.19    4.30
   4  -6   1   67.89    4.60
   4  -6   1   61.39    4.50
   4  -6   1   62.19    4.40
   4  -6   1   63.99    5.20
  -4   6  -1   63.19    3.80
  -4   6  -1   64.39    4.60
  -4   6  -1   56.09    4.90
  -4   6  -1   60.19    3.80
   6  -6   1 1723.43   40.60
   6  -6   1 1692.93   41.00
  -6  -6  -1 1717.53   40.10
   6  -6   1 1665.63   40.90
   6  -6   1 1817.12   39.50
   6  -6   1 1765.72   38.10
   6  -6   1 1723.83   41.40
  -6  -6  -1 1748.33   40.90
  -6  -6  -1 1824.02   40.00
   6  -6   1 1691.53   40.60
   6  -6   1 1754.02   42.20
  -6   6  -1 1748.13   39.40
  -6   6  -1 1784.62   41.60
  -6   6  -1 1728.43   41.20
  -6   6  -1 1850.81   42.10
   8  -6   1 2406.36   55.69
   8  -6   1 2504.55   56.59
   8  -6   1 2407.16   54.99
  -8  -6  -1 2397.36   50.69
   8  -6   1 2363.86   52.19
  -8  -6  -1 2386.36   49.80
  -8  -6  -1 2486.55   52.99
   8  -6   1 2380.06   54.79
  -8  -6  -1 2408.56   51.39
   8  -6   1 2303.67   55.09
  -8  -6  -1 2257.17   54.79
  -8   6  -1 2370.76   55.09
   8   6   1 2463.05   49.40
  -8   6  -1 2389.16   56.29
  -8   6  -1 2310.97   53.19
  -8   6  -1 2328.57   55.59
 -10  -6  -1   25.90    3.10
  10  -6   1   25.90    4.70
 -10  -6  -1   31.60    3.00
  10  -6   1   28.10    3.90
 -10  -6  -1   30.00    4.10
 -10  -6  -1   24.30    2.80
  10  -6   1   25.80    5.00
 -10  -6  -1   27.20    2.70
  10  -6   1   34.00    5.00
  10  -6   1   32.40    5.70
 -10  -6  -1   23.80    2.40
  10  -6   1   28.20    3.90
 -10   6  -1   24.10    5.10
 -10   6  -1   24.10    4.50
  10   6   1   31.20    3.80
  10   6   1   27.30    3.10
  12  -6   1  141.49   10.50
  12  -6   1  125.09   10.60
 -12  -6  -1  126.59    6.80
 -12  -6  -1  132.89    6.40
  12  -6   1  131.79    8.30
 -12  -6  -1  141.69    6.80
 -12  -6  -1  128.99    7.00
  12  -6   1  132.99    9.90
  12   6   1  128.69    6.50
 -12   6  -1  149.69   11.70
  12   6   1  136.59    5.70
 -12   6  -1  130.59   10.00
  14  -6   1 1430.56   37.10
  14  -6   1 1367.16   39.60
  14  -6   1 1449.85   39.70
 -14  -6  -1 1407.06   33.80
 -14  -6  -1 1432.86   35.30
 -14   6  -1 1429.06   40.10
 -14   6  -1 1462.65   41.60
  16  -6   1  932.41   31.30
 -16  -6  -1  966.60   27.30
  16  -6   1  959.80   29.30
  16  -6   1  923.21   32.20
  16  -6   1  893.71   31.60
 -16   6  -1  984.70   32.50
  18  -6   1   -0.90    8.80
  18  -6   1    5.00   10.30
 -18   6  -1   -9.40    9.30
  17  -7  -1   38.50    9.40
  17  -7  -1   42.20   11.30
 -17  -7   1   33.70    6.90
  17  -7  -1   45.90   12.70
 -17   7   1   35.00   12.50
  17   7  -1   42.50   11.50
 -17   7   1   26.30    9.70
  15  -7  -1  811.12   27.90
  15  -7  -1  810.82   29.00
 -15  -7   1  787.02   23.30
 -15   7   1  789.72   30.10
  15   7  -1  783.02   28.70
 -15   7   1  815.02   28.70
 -13  -7   1  682.73   18.10
  13  -7  -1  687.63   24.00
  13  -7  -1  697.53   23.50
  13  -7  -1  672.13   23.90
 -13  -7   1  686.03   18.30
 -13  -7   1  653.23   19.10
  13  -7  -1  677.73   21.40
 -13   7   1  691.73   25.30
  13   7  -1  669.03   24.10
 -13   7   1  663.83   24.00
 -11  -7   1  217.18    7.80
  11  -7  -1  228.88    9.40
 -11  -7   1  226.28    8.00
  11  -7  -1  206.98   10.00
  11  -7  -1  211.18   11.90
  11  -7  -1  203.08   13.00
 -11  -7   1  225.48    8.60
  11  -7  -1  229.88   12.50
 -11  -7   1  224.58    8.20
  11  -7  -1  214.78   11.40
 -11   7   1  229.98   13.00
  11   7  -1  227.78   12.30
 -11   7   1  226.48   12.30
   9  -7  -1    8.40    3.30
  -9  -7   1    9.10    1.70
  -9  -7   1   10.50    2.00
   9  -7  -1   12.20    4.10
   9  -7  -1    6.10    3.40
  -9  -7   1    6.30    2.10
   9  -7  -1    9.40    3.20
   9  -7  -1   12.10    4.30
  -9  -7   1    9.80    1.90
  -9  -7   1    8.70    1.90
   9  -7  -1    5.20    3.10
   9   7  -1    1.80    3.30
   9   7  -1    7.50    2.20
  -9   7   1    6.70    3.60
  -9   7   1   15.30    4.00
  -9   7   1    1.40    3.60
  -7  -7   1  740.53   16.90
  -7  -7   1  759.52   20.60
   7  -7  -1  776.32   20.80
   7  -7  -1  759.62   20.90
   7  -7  -1  750.22   21.40
  -7  -7   1  761.82   17.00
  -7  -7   1  721.13   17.50
   7  -7  -1  704.63   21.90
   7  -7  -1  729.43   21.10
   7  -7  -1  755.12   19.80
  -7  -7   1  739.53   17.60
  -7   7   1  725.53   21.00
   7   7  -1  756.12   16.60
  -7   7   1  718.93   22.00
  -7   7   1  717.23   21.30
  -7   7   1  752.12   19.30
  -7   7   1  743.43   21.30
   7   7  -1  737.13   21.00
   5  -7  -1 2814.52   61.49
   5  -7  -1 2832.02   62.39
  -5  -7   1 2834.62   61.29
   5  -7  -1 2749.02   63.69
  -5  -7   1 2799.02   60.99
   5  -7  -1 2855.41   62.09
  -5  -7   1 2741.23   59.09
  -5  -7   1 2811.32   58.29
   5  -7  -1 2827.82   61.59
   5  -7  -1 2731.53   61.69
  -5  -7   1 2715.13   58.29
   5  -7  -1 2682.63   61.99
  -5   7   1 2825.42   60.09
  -5   7   1 2765.22   62.19
   5   7  -1 2822.42   58.09
  -5   7   1 2829.92   62.99
  -5   7   1 2815.12   62.59
  -5   7   1 2833.82   61.99
   3  -7  -1  816.12   21.20
  -3  -7   1  823.02   18.80
  -3  -7   1  811.92   18.70
   3  -7  -1  810.82   20.80
   3  -7  -1  833.32   20.70
  -3  -7   1  852.41   20.10
  -3  -7   1  822.32   19.10
   3  -7  -1  842.32   22.70
   3  -7  -1  854.11   20.50
  -3  -7   1  818.32   21.30
   3  -7  -1  816.52   20.90
  -3  -7   1  818.52   18.60
   3  -7  -1  816.72   19.90
   3  -7  -1  831.82   20.60
   3   7  -1  836.12   18.40
  -3   7   1  827.32   20.90
  -3   7   1  811.32   19.50
   3   7  -1  847.82   21.00
  -3   7   1  761.12   20.10
  -1  -7   1   85.89    4.00
   1  -7  -1   78.59    5.10
  -1  -7   1   92.59    5.60
  -1  -7   1   89.59    4.20
   1  -7  -1   78.99    4.60
   1  -7  -1   85.29    5.70
   1  -7  -1   87.89    4.00
  -1  -7   1   87.09    3.90
   1  -7  -1   84.69    4.10
   1  -7  -1   83.99    4.20
   1  -7  -1   91.29    4.10
   1  -7  -1   88.09    4.30
  -1  -7   1   86.79    3.80
  -1  -7   1   86.19    3.90
  -1   7   1   88.89    4.30
   1   7  -1   87.99    5.30
  -1  -7  -1 2451.75   52.89
   1  -7   1 2565.14   52.89
  -1  -7  -1 2582.04   56.19
   1  -7   1 2521.45   54.79
  -1  -7  -1 2538.85   52.89
   1  -7   1 2565.34   54.59
   1  -7   1 2457.55   54.79
  -1  -7  -1 2484.95   53.29
  -1  -7  -1 2539.45   53.49
   1  -7   1 2505.15   54.59
   1  -7   1 2496.35   55.19
  -1  -7  -1 2543.35   53.09
  -1  -7  -1 2466.95   56.39
  -1  -7  -1 2540.45   52.59
   1  -7   1 2584.74   57.29
  -1   7  -1 2507.55   52.49
  -1   7  -1 2465.85   52.79
  -1   7  -1 2554.54   56.69
   3  -7   1 2754.32   59.69
  -3  -7  -1 2672.53   59.89
   3  -7   1 2695.33   59.29
   3  -7   1 2704.53   59.69
   3  -7   1 2673.93   61.69
  -3  -7  -1 2804.62   59.69
  -3  -7  -1 2741.73   60.09
   3  -7   1 2796.12   59.49
   3  -7   1 2714.43   60.09
  -3   7  -1 2721.63   57.69
  -3   7  -1 2641.74   59.69
  -3   7  -1 2702.73   58.09
  -3   7  -1 2649.93   60.99
  -5  -7  -1   20.00    3.10
   5  -7   1   18.40    3.20
  -5  -7  -1   18.50    3.00
   5  -7   1   16.70    3.20
   5  -7   1   17.00    2.90
  -5  -7  -1   25.10    3.60
   5  -7   1   17.00    3.00
   5  -7   1   19.60    1.90
   5  -7   1   16.00    3.70
   5  -7   1   20.20    3.20
   5  -7   1   18.90    3.00
  -5   7  -1   19.50    2.80
  -5   7  -1   18.20    2.70
  -5   7  -1   21.00    3.80
  -7  -7  -1    1.80    2.50
  -7  -7  -1    2.80    3.20
   7  -7   1    2.50    2.40
   7  -7   1    0.80    2.10
   7  -7   1    5.00    2.90
   7  -7   1    2.20    2.60
   7  -7   1    0.60    2.50
   7  -7   1    1.80    3.10
   7  -7   1    1.50    2.20
  -7  -7  -1    2.50    2.00
  -7   7  -1    2.60    2.60
  -7   7  -1   -1.50    3.50
  -7   7  -1    1.20    2.50
   9  -7   1  657.13   20.10
  -9  -7  -1  655.13   15.30
  -9  -7  -1  627.44   17.90
   9  -7   1  630.24   20.20
   9  -7   1  630.44   20.40
   9  -7   1  694.23   17.80
   9  -7   1  638.64   21.30
   9  -7   1  583.24   19.50
   9  -7   1  649.74   17.20
  -9   7  -1  635.44   20.50
  -9   7  -1  648.64   21.20
 -11  -7  -1 1442.86   32.10
 -11  -7  -1 1413.46   32.40
  11  -7   1 1366.76   38.30
  11  -7   1 1380.66   37.70
 -11  -7  -1 1408.16   34.00
  11  -7   1 1388.96   33.00
  11  -7   1 1665.63   46.30
  11  -7   1 1412.66   37.40
  11  -7   1 1362.06   34.30
 -11   7  -1 1407.76   39.10
  11   7   1 1408.56   30.30
 -11   7  -1 1438.26   38.30
  13  -7   1  828.72   24.30
  13  -7   1  868.01   28.30
 -13  -7  -1  862.01   22.40
  13  -7   1  855.71   27.10
  13  -7   1  892.31   28.10
 -13   7  -1  873.91   27.90
 -13   7  -1  833.22   29.00
  15  -7   1  193.08   13.10
  15  -7   1  233.58   17.00
  15  -7   1  199.28   16.40
  15  -7   1  180.58   15.20
 -15   7  -1  214.48   15.90
  17  -7   1  679.23   29.30
  17  -7   1  670.23   28.50
  17  -7   1  665.13   25.40
 -17   7  -1  655.73   28.00
  16  -8  -1  793.42   30.20
  16  -8  -1  762.72   30.90
  16  -8  -1  815.12   27.10
  16  -8  -1  833.92   31.90
 -16  -8   1  789.82   23.60
 -16   8   1  770.92   33.30
 -16   8   1  809.12   30.40
  14  -8  -1   30.50    8.00
  14  -8  -1   13.70    5.90
  14  -8  -1   18.50    8.30
 -14  -8   1   26.00    4.60
  14  -8  -1   25.80   11.80
 -14   8   1   12.70    9.30
 -14   8   1   13.50    6.80
  12  -8  -1  493.05   19.80
  12  -8  -1  478.55   16.70
  12  -8  -1  488.35   19.00
  12  -8  -1  503.95   20.20
 -12  -8   1  498.55   14.50
 -12   8   1  474.75   20.80
  12   8  -1  501.45   19.80
 -12   8   1  492.75   19.90
 -10  -8   1  461.15   12.80
 -10  -8   1  455.95   11.60
 -10  -8   1  469.35   11.60
  10  -8  -1  474.05   18.30
  10  -8  -1  455.85   16.90
  10  -8  -1  469.45   17.60
  10  -8  -1  454.65   17.90
 -10  -8   1  478.25   12.70
  10  -8  -1  450.95   14.90
  10  -8  -1  454.85   14.80
 -10   8   1  482.05   17.90
 -10   8   1  451.65   18.20
  10   8  -1  438.26   11.20
  -8  -8   1  507.65   12.80
  -8  -8   1  508.45   12.00
   8  -8  -1  493.05   16.50
  -8  -8   1  510.55   14.30
   8  -8  -1  516.45   17.40
  -8  -8   1  522.65   13.00
   8  -8  -1  514.65   15.80
   8  -8  -1  492.45   18.20
   8  -8  -1  509.95   17.40
   8  -8  -1  519.15   17.00
  -8  -8   1  527.05   12.10
  -8   8   1  506.15   18.20
  -8   8   1  526.15   17.50
  -8   8   1  529.85   16.60
   6  -8  -1   54.49    5.40
  -6  -8   1   56.39    2.60
  -6  -8   1   55.49    5.30
  -6  -8   1   60.09    2.60
  -6  -8   1   58.49    3.00
  -6  -8   1   57.19    2.60
  -6  -8   1   59.19    3.30
   6  -8  -1   56.29    5.30
  -6  -8   1   61.39    4.90
   6  -8  -1   49.50    6.40
   6  -8  -1   60.19    6.00
   6  -8  -1   44.00    5.20
   6  -8  -1   53.29    5.90
   6  -8  -1   51.19    5.30
  -6   8   1   54.09    4.80
  -6   8   1   55.39    5.90
  -6   8   1   58.49    6.10
  -4  -8   1  659.23   15.10
  -4  -8   1  655.63   18.30
   4  -8  -1  648.34   20.00
  -4  -8   1  640.54   17.20
   4  -8  -1  617.94   17.70
  -4  -8   1  646.44   15.70
   4  -8  -1  645.14   17.70
   4  -8  -1  648.64   18.40
   4  -8  -1  634.84   18.10
  -4  -8   1  653.83   15.20
   4  -8  -1  653.23   18.20
  -4  -8   1  643.74   15.20
  -4   8   1  668.73   16.10
  -4   8   1  662.83   16.20
  -4   8   1  648.34   18.20
   2  -8  -1  101.99    7.00
  -2  -8   1   84.09    4.70
  -2  -8   1   91.49    4.20
  -2  -8   1   94.99    4.10
  -2  -8   1   96.89    4.50
   2  -8  -1  101.29    4.90
  -2  -8   1   95.39    4.60
   2  -8  -1   85.39    5.00
  -2  -8   1   94.89    4.30
   2  -8  -1  109.29    6.40
  -2  -8   1   95.29    6.20
   2  -8  -1   91.99    4.90
   2  -8  -1   95.59    5.00
  -2  -8   1   95.19    4.10
   2  -8  -1   96.59    5.00
   2  -8  -1   95.59    4.60
  -2   8   1   97.39    5.20
   2   8  -1   96.19    6.30
   0  -8  -1 1222.38   28.60
   0  -8  -1 1265.07   28.20
   0  -8  -1 1239.18   28.50
   0  -8   1 1242.78   28.80
   0  -8   1 1229.18   31.80
   0  -8  -1 1259.27   31.80
   0  -8   1 1255.67   29.20
   0  -8   1 1252.77   28.80
   0  -8   1 1275.47   27.90
   0  -8   1 1256.57   29.50
   0  -8   1 1288.27   28.50
   0  -8  -1 1245.58   28.20
   0  -8   1 1251.37   29.00
   0  -8  -1 1277.07   31.10
   0  -8  -1 1281.57   28.40
   0   8  -1 1281.17   31.40
   0   8   1 1278.77   28.50
   2  -8   1  339.57   11.00
   2  -8   1  363.66    8.70
   2  -8   1  349.37   10.80
   2  -8   1  357.76   13.20
  -2  -8  -1  350.16   11.00
  -2  -8  -1  344.67    8.50
  -2  -8  -1  345.47    8.40
  -2  -8  -1  348.07    8.90
  -2  -8  -1  341.97    8.40
  -2  -8  -1  345.47    8.30
   2  -8   1  331.97   11.20
   2  -8   1  336.87   10.90
  -2  -8  -1  340.07   12.10
   2  -8   1  360.36   10.90
  -2  -8  -1  343.87   12.00
  -2   8  -1  344.17    9.20
  -2   8  -1  345.27    8.90
  -2   8  -1  344.77   12.70
  -2   8  -1  343.57   11.10
   4  -8   1 2086.69   48.40
  -4  -8  -1 2114.39   48.40
   4  -8   1 2122.79   48.10
  -4  -8  -1 2112.29   48.80
   4  -8   1 2152.98   49.10
   4  -8   1 2116.59   50.69
   4  -8   1 2103.19   48.60
   4  -8   1 2137.19   48.10
  -4  -8  -1 2135.39   48.30
   4  -8   1 2109.79   48.50
  -4   8  -1 2079.29   48.60
  -4   8  -1 2092.59   49.99
  -4   8  -1 2167.58   46.30
  -4   8  -1 2112.59   46.60
   6  -8   1  964.20   25.90
   6  -8   1  973.10   26.50
   6  -8   1  950.70   27.50
   6  -8   1  962.00   24.90
   6  -8   1 1005.60   25.50
   6  -8   1  968.50   21.90
   6  -8   1  933.91   25.30
  -6  -8  -1  921.91   25.10
  -6  -8  -1  978.70   24.50
  -6  -8  -1  943.51   25.60
  -6   8  -1  950.20   23.70
  -6   8  -1  979.20   26.00
  -6   8  -1  983.40   24.20
   8  -8   1  162.68    9.60
   8  -8   1  181.18    8.80
   8  -8   1  163.38    9.70
   8  -8   1  172.18   10.90
  -8  -8  -1  158.48    8.60
   8  -8   1  168.78    9.30
   8  -8   1  175.08    6.80
  -8  -8  -1  170.48    7.40
   8  -8   1  160.58    9.30
  -8   8  -1  175.08   10.10
  10  -8   1    1.30    2.90
  10  -8   1   -5.60    4.40
  10  -8   1    2.60    5.00
  10  -8   1    0.80    3.90
  10  -8   1    2.10    3.90
 -10  -8  -1   -5.00    3.90
  10  -8   1   -4.10    3.50
 -10  -8  -1    5.50    2.10
 -10   8  -1   -5.20    4.10
  12  -8   1  714.73   24.50
  12  -8   1  709.53   20.50
  12  -8   1  728.53   24.10
  12  -8   1  703.33   25.90
 -12   8  -1  700.73   24.70
  14  -8   1  150.58   13.40
  14  -8   1  157.18   21.70
  14  -8   1  153.38   15.30
  14  -8   1  140.59   10.80
 -14   8  -1  130.39   13.50
  16  -8   1    9.00   10.70
  16  -8   1    9.50   10.20
  16  -8   1   -5.50    8.90
  16  -8   1   -9.70    8.90
 -16   8  -1   13.60    9.00
  15  -9  -1  695.53   27.00
  15  -9  -1  714.73   29.20
  15  -9  -1  634.84   28.10
  15  -9  -1  649.74   26.10
 -15  -9   1  693.73   19.70
 -15   9   1  701.73   27.90
 -15   9   1  671.53   33.60
  13  -9  -1  223.58   16.70
  13  -9  -1  220.08   12.00
  13  -9  -1  202.08   15.40
  13  -9  -1  232.58   14.60
 -13  -9   1  220.18    9.00
 -13   9   1  211.48   17.80
 -13   9   1  219.98   15.40
  11  -9  -1   11.90    7.10
  11  -9  -1   10.70    5.50
  11  -9  -1   22.00    5.90
 -11  -9   1   15.30    2.90
  11  -9  -1   20.80    4.70
 -11   9   1   34.30    6.60
 -11   9   1   25.40    7.70
   9  -9  -1    5.20    4.90
   9  -9  -1    8.20    5.10
   9  -9  -1    5.50    4.30
  -9  -9   1    8.20    2.00
  -9  -9   1    6.80    2.40
   9  -9  -1    3.50    3.90
   9  -9  -1    6.50    3.80
  -9  -9   1    6.90    3.10
  -9   9   1    4.00    4.10
  -9   9   1   11.00    5.60
   7  -9  -1  107.09    7.70
  -7  -9   1   98.49    8.00
  -7  -9   1  105.09    6.60
   7  -9  -1  103.99    8.90
   7  -9  -1   97.59    7.40
   7  -9  -1  104.39    7.80
   7  -9  -1  104.59    7.60
  -7  -9   1   98.69    4.40
  -7  -9   1  113.09    4.40
  -7   9   1  106.59    6.70
  -7   9   1  109.39    8.20
  -7   9   1  106.69    8.80
  -7   9   1  102.59    7.10
  -5  -9   1  100.49    3.60
  -5  -9   1  100.79    6.20
  -5  -9   1  103.09    4.60
   5  -9  -1   93.89    8.20
   5  -9  -1  100.29    6.70
  -5  -9   1  104.49    3.60
   5  -9  -1   91.19    6.80
   5  -9  -1  108.39    7.70
  -5  -9   1  102.49    3.70
  -5  -9   1  100.69    6.80
   5  -9  -1   95.39    6.30
   5  -9  -1  102.89    6.70
  -5   9   1  104.99    5.50
  -5   9   1  105.29    5.60
  -5   9   1  103.09    7.10
  -5   9   1  105.69    7.40
   3  -9  -1  933.21   23.40
   3  -9  -1  954.10   23.70
  -3  -9   1  920.61   21.80
   3  -9  -1  918.31   23.80
  -3  -9   1  914.11   21.30
   3  -9  -1  938.61   23.20
  -3  -9   1  947.81   22.80
  -3  -9   1  933.11   21.40
   3  -9  -1  922.11   23.70
   3  -9  -1  867.41   26.00
  -3  -9   1  918.61   21.00
  -3  -9   1  907.21   24.90
  -3  -9   1  908.41   21.70
  -3  -9   1  959.90   21.40
  -3   9   1  910.11   20.30
  -3   9   1  897.01   23.50
  -3   9   1  918.01   20.20
   1  -9  -1  148.19    6.00
   1  -9  -1  140.29    8.50
  -1  -9   1  151.98    5.90
  -1  -9   1  159.48    8.50
  -1  -9   1  147.89    5.80
  -1  -9   1  145.99    6.20
  -1  -9   1  147.29    5.90
  -1  -9   1  150.08    6.20
   1  -9  -1  140.49    6.20
   1  -9  -1  145.79    5.80
  -1  -9   1  147.59    5.70
  -1  -9   1  147.79    5.80
   1  -9  -1  150.28    6.20
   1  -9  -1  145.49    6.10
   1  -9  -1  144.79    6.30
  -1   9   1  146.49    6.40
   1   9  -1  144.29    8.50
   1  -9   1  963.10   23.70
  -1  -9  -1  998.70   22.10
  -1  -9  -1  987.60   22.80
  -1  -9  -1  977.40   26.50
   1  -9   1  962.30   24.20
  -1  -9  -1  984.40   22.70
   1  -9   1  954.40   27.00
  -1  -9  -1  944.71   22.10
   1  -9   1  982.20   24.00
  -1  -9  -1  974.70   22.80
  -1  -9  -1 1000.10   24.20
   1  -9   1  977.00   21.90
   1  -9   1  998.60   23.90
   1  -9   1  983.70   24.50
  -1   9  -1  911.81   26.00
   3  -9   1  903.11   24.20
   3  -9   1  915.31   26.80
  -3  -9  -1  944.61   20.50
  -3  -9  -1  936.21   20.80
  -3  -9  -1  963.10   20.60
   3  -9   1  946.71   24.60
   3  -9   1  936.71   24.80
  -3  -9  -1  975.70   25.70
  -3  -9  -1  940.21   24.30
   3  -9   1  941.41   24.00
  -3  -9  -1  922.71   20.80
   3  -9   1 1042.80   30.30
  -3   9  -1  961.30   21.70
  -3   9  -1  916.01   24.40
  -3   9  -1  925.11   22.10
   5  -9   1  112.69    9.50
   5  -9   1   98.59    8.40
   5  -9   1  105.89    6.70
   5  -9   1   99.59    6.80
   5  -9   1  102.89    7.00
   5  -9   1  107.79    7.20
   5  -9   1  106.09    3.80
  -5  -9  -1   88.39    7.20
  -5  -9  -1   99.19    6.90
  -5   9  -1  106.49    5.90
  -5   9  -1  112.19    7.30
  -5   9  -1  100.49    5.90
   7  -9   1   44.70    6.50
  -7  -9  -1   48.60    5.50
   7  -9   1   50.19    6.10
   7  -9   1   44.80    5.60
   7  -9   1   37.10    5.20
   7  -9   1   49.50    3.30
   7  -9   1   37.90    4.90
   7  -9   1   38.60    6.30
  -7   9  -1   44.50    5.90
  -7   9  -1   41.40    4.90
  -7   9  -1   49.90    5.70
   9  -9   1   60.89    8.10
   9  -9   1   60.79    7.90
   9  -9   1   59.29    7.40
   9  -9   1   55.59    5.00
  -9  -9  -1   62.49    5.80
   9  -9   1   65.39    7.90
   9  -9   1   58.79    7.10
  -9  -9  -1   57.89    3.30
  -9   9  -1   58.79    7.80
  -9   9  -1   66.39    7.00
  11  -9   1  454.85   14.50
  11  -9   1  451.25   18.90
  11  -9   1  471.35   20.50
  11  -9   1  478.35   18.40
 -11   9  -1  451.65   19.00
  13  -9   1   43.20    8.90
  13  -9   1   43.00    6.30
  13  -9   1   29.90    9.00
  13  -9   1   33.20    8.00
 -13   9  -1   22.80    7.30
  15  -9   1   -5.10    8.80
  15  -9   1   -2.00    7.50
  15  -9   1   -0.70   10.30
 -15   9  -1   10.80    8.60
 -14 -10   1   59.59    6.30
  14 -10  -1   70.69   12.60
  14 -10  -1   80.79   11.60
  14 -10  -1   58.69   10.40
 -14  10   1   63.19   11.60
 -12 -10   1    4.00    2.50
  12 -10  -1   -2.60    6.00
  12 -10  -1   -5.60    6.80
  12 -10  -1    2.00    6.00
  12 -10  -1    8.80    4.90
 -12  10   1   17.40    7.20
 -12  10   1   14.90    8.00
  10 -10  -1  102.69   10.60
  10 -10  -1  100.99   12.20
 -10 -10   1  112.59    7.00
  10 -10  -1  125.89   10.50
  10 -10  -1  122.29    8.10
 -10  10   1  111.99   12.30
 -10  10   1  111.19   10.90
   8 -10  -1   13.50    4.50
  -8 -10   1   10.00    4.00
   8 -10  -1   18.30    5.10
   8 -10  -1    9.90    5.00
  -8 -10   1   14.70    2.70
   8 -10  -1    8.10    6.00
   8 -10  -1    7.80    5.60
  -8  10   1   12.30    5.10
  -8  10   1   10.50    4.50
  -8  10   1   11.30    4.10
  -6 -10   1    2.70    3.20
  -6 -10   1    7.70    1.90
   6 -10  -1    3.40    3.50
   6 -10  -1    0.60    3.00
   6 -10  -1    3.90    3.20
   6 -10  -1    3.10    4.10
  -6 -10   1    8.00    2.20
  -6 -10   1   -0.90    1.80
   6 -10  -1    1.00    3.00
  -6 -10   1   -2.30    3.50
  -6  10   1   -2.40    3.10
  -6  10   1    5.50    3.90
  -6  10   1    4.70    2.90
  -4 -10   1  103.69    5.00
  -4 -10   1  112.39    5.20
  -4 -10   1  103.29    7.60
  -4 -10   1  110.79    6.40
   4 -10  -1  117.89    6.80
   4 -10  -1  112.79    7.30
  -4 -10   1  110.29    5.10
   4 -10  -1  105.49    6.90
  -4 -10   1  119.89    4.20
   4 -10  -1  109.49    6.80
  -4 -10   1  100.49    4.40
   4 -10  -1  110.09    6.90
   4 -10  -1  112.99    9.00
  -4 -10   1  113.49    4.20
  -4  10   1  106.39    4.90
  -4  10   1  107.59    4.60
  -4  10   1   97.39    7.10
   2 -10  -1    9.40    2.60
  -2 -10   1    7.10    3.50
   2 -10  -1    9.50    2.70
  -2 -10   1    7.60    1.90
  -2 -10   1    5.60    2.10
   2 -10  -1    3.00    2.20
  -2 -10   1    8.60    2.10
   2 -10  -1    3.80    3.50
   2 -10  -1    7.70    2.40
  -2 -10   1    5.50    2.10
  -2 -10   1   10.50    2.60
   2 -10  -1   12.50    2.60
  -2 -10   1    3.20    1.90
  -2 -10   1   13.00    2.40
   2  10  -1    6.20    5.00
  -2  10   1    4.80    2.60
   0 -10  -1   60.09    4.40
   0 -10  -1   57.89    4.10
   0 -10   1   64.29    4.70
   0 -10   1   63.09    4.80
   0 -10  -1   59.79    3.90
   0 -10  -1   59.49    5.10
   0 -10   1   64.49    4.70
   0 -10  -1   62.69    4.10
   0 -10   1   49.20    6.70
   0 -10  -1   52.29    6.60
   0 -10   1   55.49    4.70
   0 -10   1   62.99    4.50
   0 -10  -1   60.79    4.20
   2 -10   1   10.10    2.70
  -2 -10  -1   14.30    2.20
   2 -10   1   10.80    2.80
  -2 -10  -1   14.50    3.30
  -2 -10  -1   12.70    1.50
   2 -10   1   10.50    3.00
   2 -10   1   16.50    3.30
  -2 -10  -1   10.70    1.80
   2 -10   1   13.80    1.80
  -2 -10  -1   14.90    2.10
  -2 -10  -1   19.00    4.20
   2 -10   1   13.10    3.10
   2 -10   1   11.60    4.40
  -4 -10  -1   47.10    6.20
   4 -10   1   42.40    2.70
  -4 -10  -1   46.50    2.70
   4 -10   1   48.40    5.70
   4 -10   1   45.20    5.20
   4 -10   1   47.40    5.50
  -4 -10  -1   36.10    5.00
   4 -10   1   44.10    6.10
   4 -10   1   41.20    5.40
  -4  10  -1   47.40    6.00
  -4  10  -1   39.80    4.30
  -4  10  -1   43.80    4.50
   6 -10   1   48.90    5.60
   6 -10   1   55.39    6.70
  -6 -10  -1   45.00    6.40
   6 -10   1   54.59    3.00
   6 -10   1   41.60    6.30
   6 -10   1   52.29    6.40
   6 -10   1   47.00    6.70
  -6  10  -1   54.69    5.90
  -6  10  -1   49.40    6.10
  -6  10  -1   63.89    7.30
   8 -10   1   42.50    6.70
   8 -10   1   50.79    6.50
  -8 -10  -1   44.00    5.40
   8 -10   1   51.49    6.50
   8 -10   1   50.09    6.50
  -8  10  -1   49.60    5.60
  -8  10  -1   34.90    5.90
  10 -10   1   -0.30    5.90
  10 -10   1    9.70    5.50
  10 -10   1    4.20    5.20
 -10 -10  -1    6.70    3.80
  10 -10   1   10.90    3.50
 -10  10  -1    6.00    5.00
 -10  10  -1    7.50    4.70
  12 -10   1   29.00    8.00
  12 -10   1   29.90    9.20
  12 -10   1   24.20    7.40
 -12  10  -1   24.40    6.70
 -12  10  -1   31.00    7.80
  14 -10   1    6.50   10.60
  14 -10   1   15.70    8.90
  14 -10   1    5.90    8.60
 -14  10  -1    4.50    7.60
 -14  10  -1   21.20    8.90
  13 -11  -1   83.29   12.90
  13 -11  -1   77.09   10.60
  13 -11  -1   89.69   12.20
 -13  11   1   73.69   11.40
 -13  11   1   84.09   10.30
  11 -11  -1   -5.80    5.70
  11 -11  -1    2.80    6.40
  11 -11  -1    9.00    7.70
  11 -11  -1   14.20    5.20
 -11  11   1   -1.70    6.40
 -11  11   1   -3.40    5.70
   9 -11  -1   69.09    9.50
   9 -11  -1   54.89    6.50
   9 -11  -1   66.19    9.70
  -9 -11   1   60.09    7.40
   9 -11  -1   51.59    7.10
  -9  11   1   72.69    8.60
  -9  11   1   61.39    8.20
  -7 -11   1  157.08    9.60
   7 -11  -1  176.38   10.70
   7 -11  -1  169.18   10.60
   7 -11  -1  174.48   12.90
   7 -11  -1  185.48   10.50
  -7  11   1  175.88   11.30
  -7  11   1  170.78    8.80
  -7  11   1  170.88   10.20
   5 -11  -1   30.90    6.60
  -5 -11   1   32.60    5.40
  -5 -11   1   31.60    3.60
  -5 -11   1   33.10    3.60
  -5 -11   1   27.40    3.50
   5 -11  -1   34.00    5.10
   5 -11  -1   32.50    4.70
  -5 -11   1   34.40    4.70
   5 -11  -1   33.50    5.10
   5 -11  -1   26.60    4.80
  -5  11   1   21.30    4.20
  -5  11   1   25.30    4.90
  -3 -11   1   14.50    4.50
  -3 -11   1   15.90    2.40
   3 -11  -1   10.80    3.10
  -3 -11   1   17.00    2.90
  -3 -11   1   12.20    2.40
   3 -11  -1    8.90    3.10
  -3 -11   1   12.60    2.70
   3 -11  -1   14.80    3.40
  -3 -11   1   11.30    2.50
   3 -11  -1   13.00    3.70
  -3 -11   1   10.40    2.00
   3 -11  -1   13.50    3.50
   3 -11  -1    5.70    4.50
  -3 -11   1   11.80    3.20
  -3  11   1   15.40    3.80
  -1 -11   1  180.68    7.30
   1 -11  -1  168.68    7.20
  -1 -11   1  170.78    7.60
  -1 -11   1  174.78    7.50
   1 -11  -1  178.98    7.60
  -1 -11   1  191.58   10.80
   1 -11  -1  169.68   10.60
  -1 -11   1  171.78    7.20
   1 -11  -1  181.18    7.90
   1 -11  -1  174.38    8.00
  -1 -11   1  177.18    6.90
  -1 -11   1  180.38    7.00
   1 -11  -1  180.98    7.90
   1 -11  -1  169.18    7.50
   1 -11   1    8.00    2.70
  -1 -11  -1    8.80    2.70
  -1 -11  -1   11.00    2.00
  -1 -11  -1   15.90    4.60
   1 -11   1   11.80    3.10
  -1 -11  -1   10.00    2.40
  -1 -11  -1   14.20    3.50
   1 -11   1   11.40    4.30
   1 -11   1    8.90    2.80
   1 -11   1   11.70    2.10
  -1 -11  -1    7.90    2.20
   1 -11   1   15.60    3.20
   1 -11   1    3.50    2.80
   3 -11   1 1130.59   28.80
  -3 -11  -1 1135.19   25.00
   3 -11   1 1156.58   30.30
  -3 -11  -1 1094.29   30.80
   3 -11   1 1125.99   32.90
  -3 -11  -1 1134.09   25.10
   3 -11   1 1055.99   28.80
  -3 -11  -1 1117.09   28.90
   3 -11   1 1162.08   29.70
   5 -11   1    4.50    3.40
   5 -11   1    6.70    4.60
   5 -11   1   -0.40    3.40
   5 -11   1    1.50    3.90
   5 -11   1   11.50    3.70
  -5 -11  -1    2.00    1.70
  -5 -11  -1    3.20    3.70
  -5  11  -1    2.00    3.10
  -5  11  -1    8.70    3.30
  -5  11  -1    9.90    4.20
  -7 -11  -1  195.88   10.70
   7 -11   1  185.88   11.30
   7 -11   1  187.38   13.30
   7 -11   1  198.18   11.10
   7 -11   1  196.38   11.40
  -7  11  -1  188.18   11.70
  -7  11  -1  178.18    9.90
  -7  11  -1  211.18    9.90
   9 -11   1   90.29   10.50
   9 -11   1   86.69    9.70
  -9 -11  -1   92.59    8.40
   9 -11   1  108.49   13.20
  -9  11  -1   80.79   10.60
  -9  11  -1   91.09    9.00
  11 -11   1    5.30    8.20
  11 -11   1    4.10    6.20
  11 -11   1   12.00    6.70
 -11  11  -1   -9.00    5.90
 -11  11  -1    5.60    6.90
  13 -11   1  182.98   20.20
  13 -11   1  153.18   17.10
  13 -11   1  170.28   16.40
 -13  11  -1  173.08   15.10
 -13  11  -1  194.48   17.40
  12 -12  -1  178.68   17.30
  12 -12  -1  216.78   20.80
  12 -12  -1  211.58   15.80
 -12  12   1  191.68   15.80
 -12  12   1  206.78   17.80
  10 -12  -1    5.10    6.60
  10 -12  -1    1.60    7.70
  10 -12  -1    4.60    6.10
 -10  12   1    2.00    6.80
 -10  12   1   11.30    6.50
  -8 -12   1  184.28   11.40
   8 -12  -1  179.18   12.50
   8 -12  -1  190.78   11.70
   8 -12  -1  175.18   14.60
  -8  12   1  149.59   15.20
  -8  12   1  196.58   10.50
   6 -12  -1   31.10    5.30
   6 -12  -1   25.70    6.70
  -6 -12   1   39.90    6.60
   6 -12  -1   31.00    5.40
  -6  12   1   22.90    3.90
  -6  12   1   36.30    6.30
  -4 -12   1    8.00    1.90
  -4 -12   1   14.40    4.80
  -4 -12   1    4.80    2.70
  -4 -12   1   16.40    4.20
   4 -12  -1    9.60    3.60
  -4 -12   1   12.00    3.30
   4 -12  -1    7.00    3.70
   4 -12  -1   19.10    5.80
  -4 -12   1   14.30    2.80
  -4  12   1    6.00    4.40
  -2 -12   1  256.07    9.40
   2 -12  -1  244.58    9.90
  -2 -12   1  248.18    8.60
   2 -12  -1  246.68    9.60
  -2 -12   1  247.58    8.30
  -2 -12   1  251.87    9.60
  -2 -12   1  250.17   13.30
   2 -12  -1  244.58   10.40
  -2 -12   1  227.28    8.70
  -2 -12   1  264.97    9.30
   2 -12  -1  225.78   14.90
   2 -12  -1  242.68    9.80
   2 -12  -1  249.48   10.40
   0 -12   1  896.01   28.00
   0 -12   1  853.21   22.70
   0 -12   1  897.71   21.20
   0 -12   1  917.31   23.20
   0 -12   1  906.91   22.70
   0 -12  -1  882.91   22.00
   0 -12  -1  883.71   27.80
   0 -12  -1  876.01   21.70
   0 -12  -1  889.61   23.40
   0 -12  -1  881.91   22.60
   0 -12   1  909.31   23.80
   0 -12   1  889.11   24.00
  -2 -12  -1   17.90    2.80
  -2 -12  -1   15.50    2.30
   2 -12   1    9.00    3.70
   2 -12   1   16.70    5.20
  -2 -12  -1   15.50    5.00
  -2 -12  -1   19.10    4.50
   2 -12   1   16.00    4.00
   2 -12   1   18.10    3.70
   2 -12   1   19.50    9.20
   2 -12   1   17.30    3.80
  -2 -12  -1   15.60    2.60
   4 -12   1  566.14   18.00
  -4 -12  -1  544.55   19.70
   4 -12   1  544.35   21.60
   4 -12   1  532.05   20.00
   4 -12   1  533.85   17.90
   6 -12   1  208.08   11.40
   6 -12   1  180.78   11.30
  -6 -12  -1  188.88   11.50
   6 -12   1  193.78   14.10
  -6  12  -1  168.88    9.20
  -6  12  -1  195.48   12.00
   8 -12   1   28.70    6.30
  -8 -12  -1   46.00    6.70
   8 -12   1   28.30    6.60
   8 -12   1   46.10    9.50
  -8  12  -1   46.10    6.70
  -8  12  -1   40.80    8.00
  10 -12   1   84.09   10.70
  10 -12   1   70.19   11.60
  10 -12   1   67.89    9.10
 -10  12  -1   91.19   12.80
  12 -12   1   36.80    9.00
  12 -12   1   26.70   11.50
  12 -12   1   27.80    9.40
 -12  12  -1   49.80    9.60
 -12  12  -1   41.20   10.90
  11 -13  -1  378.26   24.40
  11 -13  -1  350.76   19.50
  11 -13  -1  356.46   20.60
 -11  13   1  391.16   21.70
   9 -13  -1   33.30   10.30
   9 -13  -1   26.80    7.20
  -9  13   1   39.90    8.60
   7 -13  -1  592.94   20.50
  -7 -13   1  586.34   20.90
   7 -13  -1  557.34   24.50
   7 -13  -1  581.74   21.30
  -7  13   1  454.65   26.60
   5 -13  -1  683.63   21.40
  -5 -13   1  702.93   23.80
   5 -13  -1  680.73   26.60
   5 -13  -1  705.83   22.10
  -5 -13   1  674.03   16.80
  -5 -13   1  685.73   16.60
  -5  13   1  672.83   22.30
   3 -13  -1    9.40    5.90
   3 -13  -1    9.20    3.80
  -3 -13   1    5.10    3.00
  -3 -13   1    4.10    2.60
   3 -13  -1    3.20    3.70
  -3 -13   1    4.20    3.00
  -3 -13   1   -0.20    5.20
   1 -13  -1   50.59    5.90
   1 -13  -1   55.09    5.90
  -1 -13   1   61.29    6.90
  -1 -13   1   40.20    7.30
   1 -13  -1   42.10    7.50
   1 -13  -1   52.59    6.00
  -1 -13   1   49.70    5.70
  -1 -13   1   56.79    5.80
   1 -13   1  275.77   11.60
   1 -13   1  282.87   14.50
  -1 -13  -1  265.77    9.10
  -1 -13  -1  266.57    9.90
  -1 -13  -1  261.67    8.40
   1 -13   1  269.47   15.40
  -1 -13  -1  278.77    9.90
  -1 -13  -1  296.47   15.60
   3 -13   1  335.57   17.40
  -3 -13  -1  309.17    9.00
   3 -13   1  311.37   13.30
   3 -13   1  326.07   13.10
  -3 -13  -1  301.67    9.00
  -3 -13  -1  312.77   16.70
   5 -13   1   97.19    9.20
   5 -13   1  135.79   13.30
  -5 -13  -1  105.09   11.10
   5 -13   1   92.49    9.40
   7 -13   1    1.50    5.50
  -7 -13  -1    3.70    6.00
   7 -13   1   -2.60    4.90
   7 -13   1    7.10    7.80
   9 -13   1  474.35   25.10
   9 -13   1  461.55   20.90
   9 -13   1  466.25   20.10
  -9  13  -1  487.65   21.90
  -9  13  -1  425.76   24.10
  11 -13   1  403.46   21.00
  11 -13   1  459.75   22.70
  11 -13   1  412.86   25.90
 -11  13  -1  399.56   22.90
 -11  13  -1  417.86   28.80
  10 -14  -1  313.87   19.20
  10 -14  -1  301.97   23.60
  10 -14  -1  279.37   18.40
 -10  14   1  315.77   21.50
   8 -14  -1  659.83   24.60
   8 -14  -1  631.64   23.70
   8 -14  -1  649.34   28.70
  -8  14   1  671.43   25.50
   6 -14  -1  420.36   17.10
   6 -14  -1  398.86   17.50
   6 -14  -1  410.56   22.20
   4 -14  -1  254.27   12.50
  -4 -14   1  252.87    9.20
   4 -14  -1  244.28   18.20
  -4 -14   1  244.88   15.50
  -4 -14   1  256.57    9.40
   4 -14  -1  261.17   13.10
   2 -14  -1 1825.72   50.29
  -2 -14   1 1807.42   41.80
  -2 -14   1 1809.52   48.90
   2 -14  -1 1763.72   43.20
   2 -14  -1 1817.42   42.50
  -2 -14   1 1687.03   40.10
   0 -14   1  476.25   15.60
   0 -14  -1  503.15   15.60
   0 -14   1  503.15   16.40
   0 -14  -1  486.65   14.50
   0 -14   1  491.85   21.90
   0 -14  -1  497.35   22.20
   2 -14   1   17.00    4.80
  -2 -14  -1   12.70    3.30
   2 -14   1   11.90    7.10
   2 -14   1    9.70    4.40
  -2 -14  -1   12.00    7.20
  -2 -14  -1   11.70    3.30
   4 -14   1   49.10    6.80
  -4 -14  -1   39.00    8.30
   4 -14   1   49.70   10.30
   4 -14   1   44.20    6.60
   6 -14   1  367.16   22.00
  -6 -14  -1  396.46   18.90
   6 -14   1  398.26   17.30
   6 -14   1  370.36   17.20
   8 -14   1  544.25   27.30
  -8 -14  -1  561.64   24.40
   8 -14   1  550.14   22.00
   8 -14   1  540.25   22.40
  10 -14   1  373.96   21.40
  10 -14   1  355.66   20.70
  10 -14   1  375.86   25.60
   7 -15  -1  630.84   24.10
   7 -15  -1  623.34   23.20
   7 -15  -1  599.64   28.80
  -5 -15   1  499.45   23.20
   5 -15  -1  504.25   19.40
   5 -15  -1  485.45   19.00
   5 -15  -1  495.65   26.10
  -3 -15   1  396.26   20.80
   3 -15  -1  405.36   22.30
  -3 -15   1  372.86   13.10
   3 -15  -1  395.06   15.60
   3 -15  -1  387.56   15.90
  -1 -15   1  167.08   10.10
  -1 -15   1  176.98    9.50
   1 -15  -1  167.98    9.70
  -1 -15   1  181.58   15.90
   1 -15  -1  195.58   17.00
   1 -15  -1  166.98   10.00
   1 -15   1  330.27   14.30
   1 -15   1  346.47   13.90
  -1 -15  -1  345.17   12.30
   1 -15   1  359.96   20.70
  -1 -15  -1  314.07   20.00
   3 -15   1  379.46   22.00
   3 -15   1  390.66   16.60
  -3 -15  -1  389.56   20.90
   3 -15   1  398.96   16.10
   5 -15   1  921.01   35.50
  -5 -15  -1  925.51   31.90
   5 -15   1  923.51   28.40
   5 -15   1  927.61   28.90
   7 -15   1   56.49    9.20
  -7 -15  -1   87.99   11.70
   7 -15   1   63.49   12.70
   7 -15   1   80.69    9.90
   4 -16  -1   21.00   11.10
   4 -16  -1   45.00    7.90
  -4 -16   1   45.90   11.80
   4 -16  -1   26.00    7.20
   2 -16  -1 1116.89   30.70
  -2 -16   1 1161.18   39.10
   2 -16  -1 1066.59   39.10
  -2 -16   1 1090.09   28.70
   2 -16  -1 1120.59   29.50
   0 -16  -1  782.62   21.90
   0 -16   1  857.61   25.10
   0 -16  -1  850.51   23.60
   0 -16   1  888.21   33.80
   0 -16   1  835.82   23.70
   0 -16  -1  876.11   33.40
   2 -16   1   -5.90    5.80
  -2 -16  -1    3.80    9.40
   2 -16   1   -5.00    9.90
   2 -16   1   -0.10    5.80
   4 -16   1  305.77   16.80
   4 -16   1  306.57   23.70
   4 -16   1  301.07   16.10
  -4 -16  -1  337.37   22.10
  18   0  -2  856.21   31.00
 -18   0   2  855.21   29.00
 -18   0   2  879.61   29.70
 -18   0   2  876.91   31.30
 -16   0   2  495.15   20.30
 -16   0   2  494.25   19.80
  16   0  -2  479.45   20.20
 -16   0   2  474.45   18.60
 -14   0   2  261.37   12.50
  14   0  -2  252.87   13.00
 -14   0   2  237.68   12.80
 -14   0   2  260.07   12.40
 -12   0   2 3963.60   88.09
 -12   0   2 4074.99   89.39
 -12   0   2 3984.70   88.59
 -12   0   2 3915.41   82.79
  12   0  -2 4060.39   89.39
  12   0  -2 3984.40   83.39
 -10   0   2 1006.50   24.50
  10   0  -2  988.80   25.10
 -10   0   2 1014.30   25.90
  10   0  -2  952.40   25.40
  10   0  -2 1000.50   22.20
 -10   0   2  993.40   26.20
 -10   0   2  958.00   25.30
  10   0  -2  956.60   26.00
 -10   0   2 1016.50   22.20
  -8   0   2  162.28    6.90
   8   0  -2  166.88    7.40
   8   0  -2  169.58    7.00
   8   0  -2  173.58    6.90
  -8   0   2  163.88    7.10
   8   0  -2  168.68    5.10
  -8   0   2  167.58    6.30
  -8   0   2  159.08    7.10
  -6   0   2  222.68    7.80
  -6   0   2  230.68    6.90
  -6   0   2  221.98    7.40
   6   0  -2  218.38    6.80
  -6   0   2  201.58    7.50
   6   0  -2  226.88    6.00
   6   0  -2  227.68    7.40
   6   0  -2  234.88    7.70
   4   0  -2 3912.71   81.29
  -4   0   2 3872.61   80.79
  -4   0   2 3754.52   81.19
   4   0  -2 3988.00   81.59
   4   0  -2 3874.11   80.79
   2   0  -2 3849.21   87.79
  -2   0   2 4589.64   94.19
   2   0  -2 3989.60   87.59
   2   0  -2 3920.01   87.29
  -2   0   2 4833.62   92.39
   0   0   2  296.27    7.40
   0   0  -2  308.77    7.50
   0   0   2  295.07    7.30
   0   0   2  298.67    7.50
   0   0  -2  304.07    7.60
  -2   0  -2  464.55   11.50
  -2   0  -2  477.25   10.80
  -2   0  -2  472.75   10.80
   2   0   2  404.96   10.60
   2   0   2  428.16   11.40
   2   0   2  459.05   10.80
   2   0   2  456.25   10.70
  -4   0  -2 2090.89   44.00
  -4   0  -2 2148.78   44.30
  -4   0  -2 2067.09   44.10
  -4   0  -2 2082.19   44.30
  -4   0  -2 2068.09   43.80
   4   0   2 2064.19   43.90
   4   0   2 2051.59   44.00
   4   0   2 2020.00   43.80
   4   0   2 2036.20   44.50
   4   0   2 1818.52   44.90
   4   0   2 2057.89   44.30
  -6   0  -2 5092.09  108.59
   6   0   2 5256.87  108.89
   6   0   2 5176.58  108.39
  -6   0  -2 5293.37  108.89
   6   0   2 4994.60  108.89
   6   0   2 5202.88  108.39
  -6   0  -2 5178.08  109.09
   6   0   2 5111.69  108.29
   6   0   2 5261.07  108.69
  -6   0  -2 5246.88  108.39
   6   0   2 5133.69  108.69
   8   0   2  225.88    8.40
  -8   0  -2  219.88    8.20
  -8   0  -2  221.58    7.50
   8   0   2  218.28    8.60
   8   0   2  212.88    8.10
   8   0   2  217.28    7.80
  -8   0  -2  201.18    8.30
   8   0   2  211.18    7.90
   8   0   2  245.58    8.30
  -8   0  -2  211.68    8.30
  10   0   2   92.99    6.30
  10   0   2  107.29    6.60
 -10   0  -2  109.79    6.80
 -10   0  -2  103.59    6.30
  10   0   2   99.59    6.20
  10   0   2  106.59    6.30
 -10   0  -2  104.09    5.30
 -10   0  -2  115.59    7.40
  10   0   2  110.29    6.70
  10   0   2  100.29    6.70
  12   0   2 1727.63   41.20
  12   0   2 1732.03   41.00
  12   0   2 1708.53   42.50
  12   0   2 1689.23   40.10
 -12   0  -2 1699.73   42.30
 -12   0  -2 1680.03   41.40
 -12   0  -2 1728.73   38.70
 -14   0  -2 1925.21   42.50
  14   0   2 1951.00   46.20
  14   0   2 1955.60   48.00
  14   0   2 1952.80   46.20
 -14   0  -2 1946.31   46.80
 -14   0  -2 1578.74   54.69
  16   0   2   11.30    6.60
  16   0   2    3.70    6.20
 -16   0  -2   -3.50    5.10
  18   0   2  187.98   17.30
 -18   0  -2  217.48   15.20
  19  -1  -2   14.10    9.50
 -19  -1   2    4.10    8.80
 -19  -1   2   -4.90    8.40
 -19   1   2   14.50    9.50
 -19   1   2    9.80    9.80
  19   1  -2    1.60    9.70
 -17  -1   2   98.59   10.80
  17  -1  -2  103.89   12.70
 -17  -1   2  120.79   13.00
 -17  -1   2  111.19   12.00
  17   1  -2  107.09   13.40
 -17   1   2  128.19   13.00
 -17   1   2   85.49   11.30
 -17   1   2  110.49   13.60
  15  -1  -2 1324.17   36.80
  15  -1  -2 1306.77   30.10
  15  -1  -2 1321.47   35.90
 -15  -1   2 1257.47   35.80
 -15  -1   2 1320.47   35.00
 -15  -1   2 1301.17   35.30
 -15   1   2 1296.47   36.10
 -15   1   2 1293.57   35.60
  15   1  -2 1331.77   37.00
 -15   1   2 1293.67   37.40
  15   1  -2 1320.87   35.00
 -13  -1   2 1703.93   42.00
 -13  -1   2 1781.62   36.60
 -13  -1   2 1737.93   43.20
 -13  -1   2 1695.33   42.40
  13  -1  -2 1683.03   43.20
  13   1  -2 1695.83   43.80
 -13   1   2 1727.73   43.30
 -13   1   2 1744.33   42.70
 -13   1   2 1702.93   43.80
  11  -1  -2  105.49    7.30
 -11  -1   2  115.29    6.90
 -11  -1   2  107.89    6.30
 -11  -1   2  107.09    6.50
 -11  -1   2  117.49    7.40
 -11   1   2  106.69    3.90
 -11   1   2  106.09    7.50
  11   1  -2  104.19    7.50
 -11   1   2  108.69    7.40
 -11   1   2  105.59    7.20
  -9  -1   2 1775.92   41.90
   9  -1  -2 1837.72   42.30
  -9  -1   2 1836.92   41.80
   9  -1  -2 1835.32   41.60
   9  -1  -2 1809.72   42.10
  -9  -1   2 1761.92   41.20
  -9  -1   2 1772.52   40.30
   9  -1  -2 1847.42   39.80
   9   1  -2 1808.52   41.50
  -9   1   2 1856.31   42.00
  -9   1   2 1767.22   42.20
   9   1  -2 1736.73   42.30
  -9   1   2 1751.42   38.70
  -9   1   2 1822.82   40.80
   9   1  -2 1830.22   41.20
  -9   1   2 1821.32   42.80
   7  -1  -2 2494.05   53.39
   7  -1  -2 2480.95   52.09
  -7  -1   2 2511.35   52.39
   7  -1  -2 2499.95   53.89
  -7  -1   2 2413.26   53.59
   7  -1  -2 2391.96   52.59
  -7  -1   2 2318.77   53.29
  -7  -1   2 2378.16   52.99
  -7   1   2 2435.66   53.99
  -7   1   2 2465.45   52.69
  -7   1   2 2455.15   54.19
  -7   1   2 2387.16   51.49
  -7   1   2 2410.66   53.59
   7   1  -2 2409.16   50.19
   7   1  -2 2447.96   52.99
   7   1  -2 2409.46   53.89
   7   1  -2 2445.76   53.29
   5  -1  -2  767.72   18.60
   5  -1  -2  800.72   18.30
   5  -1  -2  802.32   19.10
  -5  -1   2  831.72   18.40
  -5  -1   2  768.92   18.80
  -5  -1   2  811.32   19.30
   5   1  -2  816.82   19.10
   5   1  -2  807.92   17.50
  -5   1   2  794.62   19.60
  -5   1   2  787.02   19.20
   5   1  -2  727.83   19.20
  -5   1   2  792.12   18.60
   5   1  -2  846.32   18.90
   5   1  -2  816.42   18.10
  -3  -1   2  586.94   14.20
  -3  -1   2  595.94   13.50
   3  -1  -2  608.14   14.10
  -3  -1   2  593.94   14.00
   3  -1  -2  553.74   13.60
  -3   1   2  594.64   13.70
  -3   1   2  591.54   14.40
   3   1  -2  590.84   14.20
   3   1  -2  576.84   13.50
   3   1  -2  595.54   13.40
   3   1  -2  598.74   14.00
  -1  -1   2   40.70    2.30
  -1  -1   2   48.10    2.30
   1  -1  -2   43.70    2.10
   1  -1  -2   47.70    2.00
   1  -1  -2   46.00    2.10
  -1  -1   2   45.40    2.10
  -1  -1   2   51.09    2.30
  -1   1   2   52.09    2.30
   1   1  -2   49.90    2.30
   1   1  -2   55.59    2.50
  -1   1   2   51.29    2.00
   1   1  -2   45.20    2.00
   1  -1   2 2772.32   55.49
  -1  -1  -2 2694.53   55.39
   1  -1   2 2664.83   56.39
  -1  -1  -2 2720.93   55.29
   1  -1   2 2571.44   55.59
   1  -1   2 2741.23   55.89
  -1   1  -2 2758.42   55.79
   1   1   2 2650.73   55.59
  -1   1  -2 2801.02   56.49
   1   1   2 2270.87   55.09
  -1   1  -2 2623.94   55.49
   3  -1   2 6248.38  130.79
  -3  -1  -2 6387.26  128.09
   3  -1   2 6492.45  131.39
   3  -1   2 5605.34  124.29
  -3  -1  -2 5283.97  123.89
  -3  -1  -2 5452.75  123.09
   3  -1   2 5323.97  123.69
  -3  -1  -2 5686.43  123.99
   3  -1   2 5413.46  124.09
  -3   1  -2 6350.27  129.29
  -3   1  -2 6038.00  129.99
   3   1   2 6585.94  129.09
  -3   1  -2 5476.35  123.19
   3   1   2 6398.16  128.59
  -3   1  -2 6652.63  129.09
   3   1   2 6408.66  128.69
  -3   1  -2 5670.93  124.19
   3   1   2 6286.77  127.59
   5  -1   2    1.60    1.00
   5  -1   2    1.90    1.20
   5  -1   2    3.20    1.40
   5  -1   2    4.40    1.30
   5  -1   2    1.60    1.00
   5  -1   2    2.00    1.10
  -5  -1  -2    0.80    1.00
  -5  -1  -2    2.00    0.90
   5  -1   2    2.10    1.10
  -5  -1  -2    2.60    1.50
  -5  -1  -2    2.60    1.20
  -5  -1  -2    3.40    1.00
   5   1   2    3.00    1.10
   5   1   2    2.70    0.70
   5   1   2    1.40    1.00
   5   1   2    4.00    1.20
  -5   1  -2    0.70    1.30
  -5   1  -2    1.60    1.10
   5   1   2    3.70    1.60
   5   1   2    3.60    1.00
  -5   1  -2    3.20    1.40
  -7  -1  -2 3067.59   67.99
   7  -1   2 3245.48   69.09
  -7  -1  -2 3102.99   68.59
  -7  -1  -2 3205.88   67.69
  -7  -1  -2 3313.67   69.29
   7  -1   2 3219.38   69.29
   7  -1   2 3181.98   68.89
   7  -1   2 3093.59   68.69
   7  -1   2 3287.17   68.79
   7  -1   2 3190.88   68.79
  -7   1  -2 3181.28   69.49
  -7   1  -2 3114.49   68.89
   7   1   2 3122.09   69.29
   7   1   2 3116.19   68.09
  -7   1  -2 3242.38   68.39
   7   1   2 3234.68   67.79
   7   1   2 3139.29   68.19
  -7   1  -2 3289.57   68.69
   7   1   2 3030.80   67.99
   7   1   2 3235.18   67.89
  -9  -1  -2 2483.75   54.39
   9  -1   2 2476.35   54.39
   9  -1   2 2366.96   53.59
  -9  -1  -2 2374.76   53.79
  -9  -1  -2 2354.66   53.09
  -9  -1  -2 2127.79   53.19
   9  -1   2 2427.16   53.59
   9  -1   2 2488.75   54.09
   9  -1   2 2355.76   53.29
   9  -1   2 2423.06   53.59
   9  -1   2 2341.27   53.89
   9   1   2 2434.76   52.79
  -9   1  -2 2408.46   54.69
  -9   1  -2 2368.66   53.99
  -9   1  -2 2419.06   52.79
  -9   1  -2 2435.66   53.69
   9   1   2 2385.66   53.19
   9   1   2 2408.86   52.79
   9   1   2 2347.67   52.99
   9   1   2 2347.77   54.39
  11  -1   2  526.15   16.40
 -11  -1  -2  532.85   16.80
  11  -1   2  544.05   16.50
  11  -1   2  517.05   16.90
 -11  -1  -2  523.35   16.10
 -11  -1  -2  535.35   14.00
  11  -1   2  525.75   16.10
  11   1   2  529.45   16.20
 -11   1  -2  544.95   15.10
 -11   1  -2  518.25   16.70
  11   1   2  533.95   17.50
 -11   1  -2  550.84   17.70
  13  -1   2   71.09    7.50
  13  -1   2   83.69    7.60
  13  -1   2   92.19    7.90
 -13  -1  -2   83.49    4.90
 -13  -1  -2   88.79    7.20
  13  -1   2   81.99    7.80
 -13  -1  -2   76.69    7.20
 -13   1  -2   75.39    6.00
  13   1   2   82.39    8.10
 -13   1  -2   77.39    7.50
  13   1   2   79.49    7.40
 -13   1  -2   81.09    8.10
 -15  -1  -2  360.16   14.80
  15  -1   2  327.77   16.00
  15  -1   2  346.87   15.60
  15  -1   2  346.77   15.50
 -15  -1  -2  352.76   15.70
  15  -1   2  343.77   14.40
  15   1   2  351.86   16.60
 -15   1  -2  349.77   15.50
 -15   1  -2  344.87   16.40
  15   1   2  336.97   14.50
 -17  -1  -2  657.63   22.70
  17  -1   2  629.04   24.00
  17  -1   2  636.94   24.60
  17   1   2  610.84   24.90
 -17   1  -2  647.84   23.60
  19  -1   2  322.77   21.70
 -19  -1  -2  373.56   19.80
 -19   1  -2  325.07   20.20
 -18  -2   2  893.21   29.30
  18  -2  -2  889.71   44.00
  18  -2  -2  920.91   32.40
 -18  -2   2  982.60   30.50
 -18  -2   2  956.20   31.50
 -18   2   2  925.21   31.10
 -18   2   2  924.21   31.80
 -18   2   2  967.40   34.20
  18   2  -2  924.41   33.20
 -16  -2   2    7.00    5.50
 -16  -2   2    3.60    5.00
  16  -2  -2    4.50    6.80
 -16  -2   2    5.50    5.60
  16  -2  -2   -6.00    5.50
  16   2  -2    6.90    6.60
 -16   2   2   -2.50    5.40
 -16   2   2    4.40    6.00
 -16   2   2   -6.00    5.90
  14  -2  -2  690.53   19.30
 -14  -2   2  708.53   15.70
 -14  -2   2  682.23   22.60
 -14  -2   2  685.43   21.50
  14  -2  -2  701.13   22.70
 -14   2   2  691.23   23.30
 -14   2   2  690.33   22.70
 -14   2   2  611.04   27.90
 -12  -2   2  309.37   12.40
 -12  -2   2  313.47   12.10
  12  -2  -2  317.97   13.00
  12  -2  -2  305.27   10.70
 -12  -2   2  302.07   11.70
 -12   2   2  289.47   13.30
  12   2  -2  319.67   13.30
 -12   2   2  308.57   12.60
 -12   2   2  308.67   12.90
  10  -2  -2  746.33   20.90
 -10  -2   2  822.92   20.60
  10  -2  -2  722.63   20.50
 -10  -2   2  740.13   18.90
 -10  -2   2  730.03   19.70
 -10  -2   2  748.23   20.40
  10  -2  -2  743.03   21.10
  10  -2  -2  742.53   19.10
 -10   2   2  760.62   17.30
  10   2  -2  709.63   21.10
 -10   2   2  732.23   20.80
  10   2  -2  734.93   19.60
  10   2  -2  684.63   19.70
 -10   2   2  730.73   21.50
 -10   2   2  724.33   19.60
 -10   2   2  756.62   21.40
   8  -2  -2 1606.84   37.60
  -8  -2   2 1644.54   36.10
   8  -2  -2 1626.24   38.20
  -8  -2   2 1591.94   36.70
   8  -2  -2 1570.44   36.60
   8  -2  -2 1680.13   36.70
  -8  -2   2 1604.14   37.10
  -8  -2   2 1577.44   37.30
  -8   2   2 1589.14   38.20
   8   2  -2 1635.44   36.70
   8   2  -2 1596.44   38.10
  -8   2   2 1639.14   37.90
  -8   2   2 1657.23   35.30
   8   2  -2 1602.34   37.00
  -8   2   2 1703.63   38.80
  -8   2   2 1613.04   36.80
  -6  -2   2  602.34   15.60
  -6  -2   2  612.64   14.60
   6  -2  -2  615.04   15.90
   6  -2  -2  594.64   15.20
   6  -2  -2  593.84   15.20
  -6  -2   2  583.84   15.10
   6  -2  -2  615.74   16.30
  -6   2   2  599.74   15.90
   6   2  -2  629.34   16.20
   6   2  -2  601.34   15.40
  -6   2   2  608.24   16.30
  -6   2   2  616.14   14.50
   6   2  -2  607.34   14.10
  -6   2   2  609.54   15.20
   6   2  -2  608.54   15.20
  -4  -2   2 3610.94   68.39
   4  -2  -2 3292.67   69.69
   4  -2  -2 2837.22   69.49
   4  -2  -2 3235.18   69.19
  -4  -2   2 3271.77   67.79
  -4  -2   2 3020.20   70.09
   4  -2  -2 3337.87   69.19
   4   2  -2 3312.47   68.79
  -4   2   2 3374.36   69.89
   4   2  -2 3361.86   67.69
  -4   2   2 3249.48   68.59
   4   2  -2 3244.48   69.09
   4   2  -2 3138.59   69.39
   4   2  -2 3330.17   67.89
  -4   2   2 3449.75   68.79
   2  -2  -2 9087.49  196.68
   2  -2  -2 9482.75  201.38
  -2  -2   2 8793.52  197.78
   2  -2  -2 8645.13  196.38
  -2  -2   2 8924.81  197.28
   2  -2  -2 9172.58  196.98
  -2  -2   2 9336.77  199.88
  -2  -2   2 9663.63  197.58
   2   2  -2 9221.08  196.98
  -2   2   2 9471.95  200.78
  -2   2   2 8627.84  197.08
  -2   2   2 9759.32  202.18
   2   2  -2 9396.86  199.78
   2   2  -2 9548.14  196.48
  -2   2   2 9677.73  196.88
   2   2  -2 9758.22  199.98
  -2   2   2 9999.00  201.08
   0  -2   2  223.18    6.60
   0  -2   2  214.58    6.10
   0  -2   2  219.78    6.00
   0  -2  -2  217.18    5.80
   0  -2  -2  219.88    5.50
   0  -2   2  224.98    6.10
   0  -2  -2  221.18    6.20
   0  -2  -2  224.08    5.70
   0   2   2  222.38    6.20
   0   2  -2  221.88    6.20
   0   2  -2  218.38    6.10
   0   2   2  220.18    5.20
   0   2  -2  219.78    6.00
   0   2  -2  233.88    6.70
   2  -2   2 7617.74  154.28
  -2  -2  -2 7260.57  146.69
  -2  -2  -2 7236.48  147.29
   2  -2   2 7666.23  153.88
  -2  -2  -2 6934.91  148.19
   2  -2   2 6019.80  144.89
   2   2   2 7208.08  150.58
  -2   2  -2 6412.16  144.99
  -2   2  -2 6035.20  144.19
  -2   2  -2 7210.18  146.29
   2   2   2 7370.06  147.19
  -2   2  -2 6688.73  148.19
  -2   2  -2 7417.26  151.08
  -4  -2  -2 1144.09   26.10
  -4  -2  -2 1151.58   24.90
   4  -2   2 1131.69   26.00
   4  -2   2 1146.79   25.20
  -4  -2  -2 1150.88   24.70
  -4  -2  -2 1144.79   26.50
   4  -2   2 1092.19   26.10
  -4  -2  -2 1155.68   24.90
   4  -2   2 1170.18   26.40
  -4   2  -2 1122.19   26.20
   4   2   2 1130.79   24.80
   4   2   2 1146.69   24.90
  -4   2  -2 1175.68   25.20
   4   2   2 1118.99   24.90
  -4   2  -2 1074.79   27.90
   4   2   2 1134.29   24.80
   4   2   2 1175.38   24.70
  -4   2  -2 1169.08   26.30
   6  -2   2 1026.00   24.90
   6  -2   2 1090.09   25.70
   6  -2   2 1045.30   25.20
  -6  -2  -2 1067.69   24.50
   6  -2   2 1077.79   25.50
   6  -2   2 1093.49   26.00
   6  -2   2 1016.10   25.20
  -6  -2  -2 1077.39   23.20
  -6  -2  -2 1101.69   25.90
  -6  -2  -2 1030.90   24.00
  -6  -2  -2 1047.70   24.40
   6  -2   2 1053.99   25.80
   6   2   2 1021.60   25.70
   6   2   2 1072.69   23.90
  -6   2  -2 1057.69   25.30
  -6   2  -2 1067.19   24.50
  -6   2  -2 1037.90   26.00
  -6   2  -2 1062.49   25.60
   6   2   2 1084.09   24.10
   6   2   2 1073.09   23.80
   6   2   2 1058.99   23.80
  -8  -2  -2  329.37    9.50
  -8  -2  -2  326.47   10.40
   8  -2   2  328.37   10.70
   8  -2   2  338.17   11.10
   8  -2   2  341.07   11.20
   8  -2   2  321.77   11.30
   8  -2   2  326.37   10.90
  -8  -2  -2  338.57   10.10
   8  -2   2  333.37   11.50
   8  -2   2  340.47   11.30
  -8  -2  -2  337.37   11.60
   8   2   2  332.57    9.80
   8   2   2  333.27   11.70
  -8   2  -2  327.87   11.30
   8   2   2  335.07   10.10
  -8   2  -2  322.37   11.70
  -8   2  -2  335.07   10.60
   8   2   2  328.87    9.70
   8   2   2  335.67    9.90
   8   2   2  338.87   10.00
  -8   2  -2  333.27   10.70
  10  -2   2    9.40    3.50
 -10  -2  -2    5.70    2.40
 -10  -2  -2    3.10    4.10
 -10  -2  -2    6.40    2.00
 -10  -2  -2    8.20    2.50
  10  -2   2   12.70    3.30
  10  -2   2   11.60    2.90
  10  -2   2    7.10    3.10
  10  -2   2   12.60    3.20
  10  -2   2   11.00    3.30
 -10   2  -2    8.70    2.70
 -10   2  -2   11.70    2.90
  10   2   2    9.60    3.20
  10   2   2   11.80    2.50
  10   2   2    4.80    2.70
  10   2   2   12.00    2.90
 -10   2  -2   11.30    3.20
 -10   2  -2    6.40    3.00
  12  -2   2 1585.14   39.80
 -12  -2  -2 1619.44   38.90
 -12  -2  -2 1575.94   39.20
  12  -2   2 1599.74   39.10
 -12  -2  -2 1628.44   35.30
 -12  -2  -2 1599.54   38.40
  12  -2   2 1651.13   40.10
  12  -2   2 1555.04   39.50
 -12   2  -2 1618.84   41.30
 -12   2  -2 1544.55   40.00
  12   2   2 1631.04   41.10
  12   2   2 1621.54   38.00
  12   2   2 1547.05   38.50
 -12   2  -2 1644.94   38.00
  12   2   2 1629.94   38.00
  14  -2   2 1456.75   38.30
 -14  -2  -2 1468.05   31.50
  14  -2   2 1478.05   38.30
  14  -2   2 1464.85   37.00
 -14  -2  -2 1497.95   38.10
 -14  -2  -2 1519.55   36.90
  14  -2   2 1464.95   37.90
  14   2   2 1448.16   36.20
  14   2   2 1418.26   36.00
  14   2   2 1225.28   43.20
 -14   2  -2 1430.46   35.10
 -14   2  -2 1511.65   40.10
 -14   2  -2 1450.95   38.40
 -16  -2  -2  282.37   13.70
 -16  -2  -2  274.97   14.50
  16  -2   2  269.97   15.40
  16  -2   2  290.77   15.90
  16  -2   2  291.27   15.40
  16   2   2  306.77   16.90
 -16   2  -2  264.77   16.20
 -16   2  -2  263.17   14.90
 -18  -2  -2  273.37   15.80
  18  -2   2  277.17   18.90
 -18   2  -2  241.08   17.00
  19  -3  -2   10.30   11.60
  19  -3  -2   -3.90    9.60
 -19  -3   2    9.70    8.50
 -19  -3   2   16.60    9.00
 -19   3   2   21.50   11.50
  19   3  -2   -4.70   10.40
 -19   3   2   -5.50    9.90
  17  -3  -2  197.28   15.10
 -17  -3   2  204.78   13.10
 -17  -3   2  209.68   14.10
  17  -3  -2  167.98   21.00
 -17   3   2  208.08   17.80
  17   3  -2  220.38   16.30
 -17   3   2  175.88   15.20
 -17   3   2  202.18   15.60
  15  -3  -2  105.59    9.20
 -15  -3   2   76.69    8.80
  15  -3  -2   84.29   10.80
  15  -3  -2   89.29   10.00
 -15  -3   2   67.59    8.40
 -15  -3   2   84.09    9.20
 -15   3   2   81.19   10.20
  15   3  -2   82.19    9.60
 -15   3   2   74.69   10.00
 -15   3   2   66.99    9.90
 -13  -3   2  430.66   15.30
  13  -3  -2  408.46   14.30
  13  -3  -2  419.16   15.80
 -13  -3   2  412.86   14.30
 -13  -3   2  405.26   14.60
 -13   3   2  411.06   16.10
  13   3  -2  388.66   16.30
 -13   3   2  419.36   17.00
 -13   3   2  430.76   16.60
 -11  -3   2  407.96   12.30
 -11  -3   2  404.26   12.90
  11  -3  -2  397.36   14.10
 -11  -3   2  380.56   13.30
  11  -3  -2  355.86   14.10
 -11  -3   2  390.36   13.00
  11  -3  -2  400.76   13.10
  11   3  -2  408.46   14.80
 -11   3   2  398.86   15.30
 -11   3   2  395.56   14.40
 -11   3   2  419.86   15.10
   9  -3  -2  449.56   14.50
  -9  -3   2  442.26   13.10
   9  -3  -2  430.16   14.00
  -9  -3   2  450.25   12.80
   9  -3  -2  426.86   14.20
  -9  -3   2  449.36   13.30
  -9  -3   2  449.16   12.20
   9  -3  -2  449.46   13.40
  -9   3   2  421.46   14.50
   9   3  -2  451.05   12.90
   9   3  -2  431.16   14.40
   9   3  -2  443.16   13.10
  -9   3   2  440.86   14.30
  -9   3   2  435.56   13.10
  -9   3   2  425.46   14.70
   7  -3  -2  988.20   24.10
   7  -3  -2  968.80   23.40
  -7  -3   2  953.50   22.50
   7  -3  -2  940.31   23.10
   7  -3  -2  942.91   23.70
   7  -3  -2  933.01   22.70
  -7  -3   2  906.51   22.10
  -7  -3   2  981.30   21.70
  -7  -3   2  923.71   22.60
  -7   3   2  831.42   23.20
  -7   3   2  941.81   22.60
  -7   3   2  909.11   23.80
   7   3  -2  876.71   23.40
   7   3  -2  972.60   22.30
   7   3  -2  963.40   22.60
  -7   3   2  898.41   23.40
  -7   3   2  967.10   24.30
  -5  -3   2 1293.27   28.90
  -5  -3   2 1340.17   28.40
  -5  -3   2 1295.27   27.80
   5  -3  -2 1295.27   29.40
  -5  -3   2 1263.27   29.20
   5  -3  -2 1317.67   30.00
   5  -3  -2 1311.67   29.90
   5  -3  -2 1344.27   30.40
  -5   3   2 1295.77   30.10
  -5   3   2 1294.77   29.10
  -5   3   2 1284.77   29.20
   5   3  -2 1287.27   27.50
  -5   3   2 1270.97   30.40
   5   3  -2 1310.97   29.20
   5   3  -2 1273.57   29.90
  -5   3   2 1310.27   30.40
   5   3  -2 1306.67   29.00
   3  -3  -2 1051.39   23.20
   3  -3  -2 1017.70   23.50
  -3  -3   2 1032.90   22.20
   3  -3  -2 1018.00   23.10
  -3  -3   2 1013.30   22.60
  -3  -3   2  962.20   23.00
   3  -3  -2 1003.60   22.90
  -3   3   2 1011.40   22.50
  -3   3   2 1016.50   23.20
   3   3  -2 1003.30   22.70
   3   3  -2 1012.70   21.60
   3   3  -2  961.90   22.70
  -3   3   2 1019.50   23.10
  -3   3   2 1011.40   23.50
   3   3  -2 1028.30   22.90
   3   3  -2 1020.90   22.50
  -3   3   2 1021.70   23.40
   1  -3  -2 1245.68   26.80
   1  -3  -2 1238.58   27.00
   1  -3  -2 1270.57   27.40
  -1  -3   2 1228.08   27.10
  -1  -3   2 1235.28   26.80
  -1  -3   2 1258.77   27.70
  -1  -3   2 1240.88   27.00
   1  -3  -2 1234.38   26.50
   1   3  -2 1274.57   27.60
  -1   3   2 1222.48   26.20
   1   3  -2 1227.28   26.90
  -1   3   2 1212.48   26.70
  -1   3   2 1156.18   27.40
   1   3  -2 1254.07   27.00
   1   3  -2 1195.88   26.50
   1   3  -2 1223.28   26.30
  -1   3   2 1243.28   26.90
   1  -3   2 2610.74   55.19
  -1  -3  -2 2589.64   54.39
   1  -3   2 2649.63   55.49
   1  -3   2 2637.64   56.49
  -1  -3  -2 2578.14   54.29
  -1  -3  -2 2640.44   53.59
   1  -3   2 2706.33   55.79
   1  -3   2 2663.03   55.59
  -1  -3  -2 2693.83   55.59
  -1   3  -2 2639.54   55.59
   1   3   2 2601.04   54.09
   1   3   2 2533.55   55.59
   1   3   2 2579.14   54.59
  -1   3  -2 2529.25   55.09
  -1   3  -2 2543.55   55.39
  -1   3  -2 2704.53   56.39
  -3  -3  -2  823.12   18.60
  -3  -3  -2  813.02   17.10
   3  -3   2  792.72   19.30
   3  -3   2  798.22   20.00
  -3  -3  -2  811.82   19.50
  -3  -3  -2  798.92   17.20
   3  -3   2  826.82   19.70
   3  -3   2  719.83   19.90
  -3   3  -2  764.22   19.60
   3   3   2  800.72   18.60
   3   3   2  787.02   17.10
   3   3   2  797.82   17.10
  -3   3  -2  826.72   19.10
  -3   3  -2  799.12   18.60
  -3   3  -2  824.82   19.20
   3   3   2  803.12   16.90
   3   3   2  796.02   16.90
   5  -3   2    2.40    1.60
   5  -3   2    1.10    1.50
   5  -3   2    0.30    1.50
   5  -3   2    7.80    1.90
   5  -3   2    0.40    1.20
  -5  -3  -2    6.30    1.90
  -5  -3  -2    2.50    1.00
   5  -3   2    1.30    1.30
   5  -3   2    2.70    1.10
   5   3   2    3.50    0.90
   5   3   2    2.00    0.90
  -5   3  -2    4.30    1.70
  -5   3  -2    1.50    1.50
   5   3   2    2.80    0.80
   5   3   2    1.70    0.90
   5   3   2    3.20    0.80
   7  -3   2  188.98    8.30
   7  -3   2  186.18    7.70
  -7  -3  -2  193.18    6.30
   7  -3   2  208.48    8.10
  -7  -3  -2  205.78    6.90
  -7  -3  -2  199.78    6.80
   7  -3   2  198.78    7.20
   7  -3   2  204.48    8.20
  -7  -3  -2  198.28    6.10
   7  -3   2  199.48    8.30
   7  -3   2  204.48    8.50
  -7  -3  -2  207.48    8.40
  -7   3  -2  198.38    8.00
   7   3   2  204.48    6.30
  -7   3  -2  203.68    8.20
  -7   3  -2  204.48    8.70
   7   3   2  196.78    6.30
   7   3   2  199.38    6.10
  -9  -3  -2 1633.94   38.00
   9  -3   2 1683.23   34.80
   9  -3   2 1610.44   38.50
  -9  -3  -2 1667.33   35.70
  -9  -3  -2 1609.74   39.80
   9  -3   2 1682.13   39.80
   9  -3   2 1699.03   40.30
   9  -3   2 1639.24   39.70
   9  -3   2 1608.54   39.70
   9  -3   2 1619.24   39.30
  -9  -3  -2 1776.62   37.60
  -9  -3  -2 1665.53   36.60
   9  -3   2 1622.24   39.30
  -9   3  -2 1587.34   38.10
  -9   3  -2 1668.63   40.00
   9   3   2 1609.84   40.20
   9   3   2 1628.94   38.50
  -9   3  -2 1724.43   41.00
   9   3   2 1671.83   37.40
   9   3   2 1689.93   37.10
  -9   3  -2 1657.43   38.90
   9   3   2 1680.63   37.20
   9   3   2 1682.63   37.40
  11  -3   2   15.80    3.70
  11  -3   2   23.70    4.30
 -11  -3  -2   19.80    2.30
  11  -3   2   22.10    4.50
 -11  -3  -2   14.50    3.30
  11  -3   2   25.80    4.50
 -11  -3  -2   19.40    3.30
 -11   3  -2   23.20    3.80
 -11   3  -2   19.10    4.20
  11   3   2   17.70    4.40
  11   3   2   19.10    3.10
  11   3   2   19.60    3.70
 -11   3  -2   19.60    4.30
  11   3   2   21.00    3.30
 -13  -3  -2   59.99    6.60
  13  -3   2   31.10    5.60
 -13  -3  -2   52.69    6.00
  13  -3   2   46.60    6.40
  13  -3   2   43.00    6.00
  13  -3   2   47.10    6.00
 -13   3  -2   49.80    6.80
  13   3   2   53.99    7.30
  13   3   2   36.50    5.00
 -13   3  -2   37.60    5.90
  13   3   2   39.10    4.80
 -13   3  -2   36.70    5.20
  15  -3   2    5.00    5.30
  15  -3   2   16.00    5.70
 -15  -3  -2    5.40    4.40
 -15  -3  -2    1.20    4.00
  15  -3   2    4.00    5.80
  15  -3   2    9.90    6.40
  15   3   2    8.90    5.90
 -15   3  -2   11.10    6.00
 -15   3  -2    4.20    5.20
 -17  -3  -2  638.44   21.80
  17  -3   2  628.24   24.80
  17  -3   2  642.34   24.30
 -17   3  -2  645.74   24.70
 -18  -4   2  342.57   17.10
 -18  -4   2  318.07   17.50
  18  -4  -2  365.66   20.60
  18  -4  -2  348.77   22.40
 -18  -4   2  355.66   18.40
 -18   4   2  327.07   22.50
 -18   4   2  380.46   21.30
  18   4  -2  331.47   21.30
 -16  -4   2    8.30    4.80
 -16  -4   2    1.20    5.40
  16  -4  -2    3.90    7.60
  16  -4  -2   12.50    6.60
  16  -4  -2   -4.60    5.90
 -16  -4   2    4.60    5.20
 -16   4   2   -8.40    6.40
 -16   4   2    2.30    7.80
 -16   4   2   -2.80    6.20
  16   4  -2    3.50    6.80
  14  -4  -2  172.28   11.20
  14  -4  -2  159.78   11.90
  14  -4  -2  165.88   10.60
 -14  -4   2  156.68    9.70
 -14  -4   2  178.88   10.30
 -14   4   2  183.48   12.90
  14   4  -2  175.58   12.10
 -14   4   2  168.18   11.80
 -14   4   2  167.18   14.10
 -12  -4   2    9.10    4.30
 -12  -4   2    2.20    2.70
  12  -4  -2    2.70    3.40
 -12  -4   2    4.00    2.80
 -12  -4   2    0.90    2.80
  12  -4  -2    1.90    3.40
 -12   4   2    8.70    4.00
 -12   4   2    5.30    4.10
  12   4  -2   -2.80    3.70
 -12   4   2    1.60    4.20
  10  -4  -2  692.33   19.60
 -10  -4   2  697.83   17.70
  10  -4  -2  663.33   20.50
 -10  -4   2  687.73   18.50
 -10  -4   2  679.13   18.80
  10  -4  -2  673.53   19.60
 -10  -4   2  682.03   18.20
  10  -4  -2  703.33   20.20
  10   4  -2  684.23   20.60
 -10   4   2  705.23   20.90
  10   4  -2  671.63   18.30
 -10   4   2  678.03   21.10
  -8  -4   2  125.29    5.80
   8  -4  -2  128.89    7.10
  -8  -4   2  132.99    5.80
   8  -4  -2  130.39    6.10
   8  -4  -2  132.49    6.80
   8  -4  -2  131.49    6.90
  -8  -4   2  129.59    5.20
  -8  -4   2  128.49    5.50
  -8   4   2  133.49    7.20
   8   4  -2  129.49    5.90
  -8   4   2  127.69    7.00
   8   4  -2  124.49    7.00
  -8   4   2  127.29    7.40
   8   4  -2  128.99    5.80
  -8   4   2  120.59    6.10
  -8   4   2  128.99    5.40
  -6  -4   2   32.30    2.90
   6  -4  -2   31.00    3.10
  -6  -4   2   30.60    2.70
  -6  -4   2   33.00    2.40
   6  -4  -2   25.00    3.50
   6  -4  -2   32.00    2.90
   6  -4  -2   36.00    4.50
  -6  -4   2   33.40    2.10
   6  -4  -2   29.20    3.50
   6  -4  -2   30.80    3.60
   6   4  -2   32.20    1.90
  -6   4   2   33.10    3.50
  -6   4   2   33.50    3.20
  -6   4   2   31.10    3.00
   6   4  -2   28.80    2.80
   6   4  -2   34.90    3.70
  -6   4   2   28.40    3.60
  -6   4   2   31.00    3.70
   6   4  -2   30.10    2.90
   4  -4  -2 1671.13   38.90
   4  -4  -2 1713.13   38.30
  -4  -4   2 1750.22   37.90
  -4  -4   2 1744.33   37.20
  -4  -4   2 1775.42   37.90
  -4  -4   2 1744.33   38.30
   4  -4  -2 1757.72   39.20
   4  -4  -2 1792.32   38.60
   4  -4  -2 1721.13   38.70
   4  -4  -2 1725.53   39.60
  -4   4   2 1728.93   39.20
   4   4  -2 1733.13   37.80
  -4   4   2 1692.23   38.90
   4   4  -2 1766.32   37.80
  -4   4   2 1748.82   38.70
   4   4  -2 1765.52   37.70
  -4   4   2 1812.82   38.00
  -4   4   2 1766.62   39.40
   4   4  -2 1761.52   38.80
   2  -4  -2  849.22   21.20
  -2  -4   2  883.31   20.60
  -2  -4   2  876.71   19.50
   2  -4  -2  843.02   19.90
  -2  -4   2  859.51   20.00
   2  -4  -2  888.71   20.60
  -2  -4   2  851.91   19.80
   2  -4  -2  893.81   19.70
   2  -4  -2  862.21   20.30
   2   4  -2  870.91   19.60
   2   4  -2  875.91   19.70
  -2   4   2  875.61   20.70
  -2   4   2  849.32   20.00
  -2   4   2  854.11   20.20
   2   4  -2  873.01   20.40
   2   4  -2  897.31   18.60
  -2   4   2  864.01   19.20
   2   4  -2  876.91   19.60
   0  -4  -2   80.39    2.70
   0  -4   2   77.59    3.50
   0  -4  -2   83.89    3.90
   0  -4  -2   85.09    3.10
   0  -4   2   77.59    3.60
   0  -4  -2   83.19    2.90
   0  -4   2   75.79    4.00
   0  -4   2   82.69    3.40
   0   4   2   90.39    4.10
   0   4   2   79.79    3.00
   0   4  -2   82.99    4.20
   0   4   2   79.29    3.00
   0   4  -2   84.89    3.50
   0   4  -2   82.19    3.20
   0   4  -2   84.79    3.50
   2  -4   2  385.76   10.80
   2  -4   2  394.46   10.90
   2  -4   2  401.76   11.30
  -2  -4  -2  400.36   10.70
   2  -4   2  372.56   10.60
  -2  -4  -2  409.06    8.70
   2  -4   2  381.86   11.70
  -2  -4  -2  400.66    9.00
   2   4   2  388.56    8.60
  -2   4  -2  393.06   11.50
  -2   4  -2  407.26   10.70
  -2   4  -2  398.56   10.80
   2   4   2  375.96   10.80
   2   4   2  410.66    8.60
   4  -4   2  392.86   11.90
   4  -4   2  402.66    9.40
   4  -4   2  383.26   12.20
  -4  -4  -2  396.36    8.90
  -4  -4  -2  400.66   11.80
   4  -4   2  389.06   11.40
   4  -4   2  393.66   11.60
  -4  -4  -2  401.36   10.70
   4  -4   2  394.16   11.30
   4  -4   2  375.96   11.40
  -4   4  -2  385.86   11.60
  -4   4  -2  374.66   11.30
  -4   4  -2  416.76   12.20
  -6  -4  -2    8.80    2.40
   6  -4   2   11.30    2.40
   6  -4   2    7.90    2.70
   6  -4   2    7.70    2.30
   6  -4   2    7.30    1.50
   6  -4   2    3.00    2.00
  -6  -4  -2    5.60    1.60
   6  -4   2    6.80    2.10
   6  -4   2    6.10    2.10
   6   4   2    7.70    1.20
  -6   4  -2    5.00    2.30
   6   4   2    7.30    1.10
  -6   4  -2    7.60    2.20
   6   4   2    9.10    1.30
   6   4   2    7.50    1.00
   8  -4   2  877.51   24.20
   8  -4   2  892.51   23.60
   8  -4   2  909.01   23.90
   8  -4   2  945.01   23.90
   8  -4   2  884.01   22.00
   8  -4   2  859.21   23.90
  -8  -4  -2  890.41   24.10
  -8  -4  -2  895.91   21.60
  -8  -4  -2  907.31   21.40
  -8  -4  -2  916.21   21.00
   8  -4   2  902.51   20.40
  -8  -4  -2  886.11   20.70
   8  -4   2  871.41   24.10
   8   4   2  911.11   20.40
   8   4   2  903.71   20.50
  -8   4  -2  891.51   24.00
   8   4   2  928.51   20.30
  -8   4  -2  899.71   23.50
   8   4   2  866.21   20.40
  -8   4  -2  860.91   22.40
  -8   4  -2  860.71   24.50
 -10  -4  -2   19.20    2.80
  10  -4   2   20.20    3.50
  10  -4   2   15.80    4.00
  10  -4   2   17.20    3.70
  10  -4   2   18.80    2.20
  10  -4   2   19.50    3.90
  10  -4   2   22.50    4.80
 -10  -4  -2   20.60    2.50
 -10  -4  -2   22.70    3.20
 -10  -4  -2   19.90    2.70
 -10   4  -2   19.40    4.10
  10   4   2   21.80    3.00
  10   4   2   16.60    2.70
 -10   4  -2   21.90    3.90
 -10   4  -2   17.20    3.90
 -12  -4  -2  364.96   12.90
  12  -4   2  391.16   14.80
  12  -4   2  374.56   15.00
  12  -4   2  370.76   13.80
 -12  -4  -2  342.07   11.80
 -12  -4  -2  363.46    9.20
  12  -4   2  379.26   15.00
 -12   4  -2  351.66   13.70
 -12   4  -2  369.66   15.90
  12   4   2  362.26   11.80
 -12   4  -2  380.56   15.20
  14  -4   2  254.47   13.60
 -14  -4  -2  255.37   11.80
  14  -4   2  244.88   14.00
  14  -4   2  266.77   14.50
 -14  -4  -2  248.38   11.00
  14  -4   2  260.17   13.00
 -14   4  -2  270.37   15.00
  14   4   2  269.47   12.90
 -14   4  -2  249.18   13.70
  16  -4   2   -2.80    7.30
  16  -4   2   17.10    7.20
  16  -4   2    9.40    6.30
 -16  -4  -2    4.20    5.40
 -16   4  -2   13.30    6.70
  18  -4   2   67.99   11.30
  18  -4   2   53.89   11.30
 -18   4  -2   52.09   11.00
 -17  -5   2  175.28   12.70
 -17  -5   2  170.88   12.20
  17  -5  -2  180.38   15.40
  17  -5  -2  150.98   16.60
 -17  -5   2  187.28   13.20
 -17   5   2  187.08   18.40
 -17   5   2  164.28   16.10
  17   5  -2  193.48   17.40
 -15  -5   2   58.29    8.10
  15  -5  -2   63.29    8.50
  15  -5  -2   50.79    8.70
 -15  -5   2   64.09    7.30
  15  -5  -2   50.09    7.20
 -15  -5   2   67.39    7.80
 -15   5   2   37.70    8.20
  15   5  -2   59.49    9.70
 -15   5   2   55.99    9.20
 -15   5   2   56.79    8.60
 -13  -5   2   95.39    6.90
  13  -5  -2   83.29    9.10
  13  -5  -2   81.99    8.30
 -13  -5   2   96.29    7.20
 -13   5   2  113.49    9.90
 -13   5   2  103.69    9.80
 -13   5   2  105.19   10.90
 -11  -5   2    2.30    2.50
 -11  -5   2    6.20    2.70
 -11  -5   2   -0.90    2.50
  11  -5  -2    6.00    3.30
 -11  -5   2    3.70    2.60
  11  -5  -2    2.60    4.10
  11  -5  -2    2.20    3.30
 -11   5   2    2.70    3.80
  11   5  -2    3.50    3.60
 -11   5   2    1.00    3.20
 -11   5   2    2.40    3.90
  -9  -5   2  720.13   18.60
  -9  -5   2  725.23   17.50
   9  -5  -2  701.73   20.40
  -9  -5   2  702.03   18.10
   9  -5  -2  713.43   20.90
   9  -5  -2  733.73   20.40
  -9  -5   2  703.63   17.90
  -9   5   2  678.73   21.10
   9   5  -2  671.23   20.40
   9   5  -2  688.93   19.10
  -9   5   2  699.73   20.50
  -9   5   2  680.63   20.80
   9   5  -2  696.93   18.20
  -9   5   2  702.73   20.50
   7  -5  -2    6.20    2.10
  -7  -5   2   11.20    1.80
  -7  -5   2   10.10    1.50
  -7  -5   2   13.50    2.20
   7  -5  -2    6.50    2.50
  -7  -5   2    6.90    1.70
   7  -5  -2   13.20    3.10
   7  -5  -2   10.50    2.80
   7  -5  -2    9.30    2.40
   7  -5  -2   11.00    2.70
  -7   5   2    8.50    2.30
  -7   5   2    3.60    2.50
   7   5  -2    7.10    1.90
  -7   5   2   11.80    2.50
  -7   5   2    2.80    2.40
  -7   5   2    5.80    2.50
   7   5  -2    7.20    1.80
   7   5  -2    9.20    2.60
   5  -5  -2  770.02   20.10
  -5  -5   2  759.52   18.10
   5  -5  -2  768.12   19.10
   5  -5  -2  775.12   19.60
  -5  -5   2  764.82   18.30
  -5  -5   2  762.82   18.50
   5  -5  -2  780.72   19.90
  -5  -5   2  789.52   17.60
   5  -5  -2  744.53   19.00
   5  -5  -2  746.83   20.40
   5   5  -2  790.52   18.10
  -5   5   2  781.82   18.60
  -5   5   2  781.82   20.20
   5   5  -2  764.72   17.90
  -5   5   2  769.52   19.30
  -5   5   2  783.82   19.90
   5   5  -2  731.13   19.40
  -5   5   2  742.03   20.10
   5   5  -2  787.52   18.10
  -3  -5   2   76.39    3.60
  -3  -5   2   73.09    3.20
   3  -5  -2   71.89    4.70
   3  -5  -2   79.69    4.20
   3  -5  -2   76.19    3.90
   3  -5  -2   74.39    4.00
  -3  -5   2   71.69    3.60
   3  -5  -2   80.19    4.30
   3  -5  -2   76.19    3.70
  -3  -5   2   67.49    4.00
   3   5  -2   78.69    3.70
  -3   5   2   70.59    4.20
  -3   5   2   72.79    4.00
  -3   5   2   70.49    4.10
   3   5  -2   72.69    3.30
  -3   5   2   77.39    4.30
   3   5  -2   71.79    3.20
  -3   5   2   69.99    4.20
   1  -5  -2  327.07    9.00
   1  -5  -2  328.47    8.40
   1  -5  -2  335.67    8.70
  -1  -5   2  324.97    9.00
   1  -5  -2  325.17   10.30
  -1  -5   2  314.87   10.20
   1  -5  -2  337.17    9.90
  -1  -5   2  331.87    8.80
  -1  -5   2  319.87    9.00
   1   5  -2  326.67    7.70
   1   5  -2  323.77    8.80
   1   5  -2  336.57    7.90
  -1   5   2  310.27    9.90
  -1   5   2  331.67    8.80
   1   5  -2  342.87   10.00
   1   5  -2  335.67    8.90
   1   5  -2  330.77    8.20
  -1   5   2  323.87    8.90
  -1   5   2  330.77    8.90
  -1  -5  -2    5.90    0.90
  -1  -5  -2    4.00    1.50
   1  -5   2    6.50    1.50
   1  -5   2    7.70    1.70
  -1  -5  -2    7.60    1.00
   1  -5   2    6.50    1.50
   1  -5   2    4.70    1.30
  -1  -5  -2    6.20    1.80
   1  -5   2    5.40    1.80
  -1   5  -2    3.10    1.30
  -1   5  -2    5.60    1.40
   1   5   2    5.80    0.90
   1   5   2    6.00    0.90
  -1   5  -2    6.50    1.30
   1   5   2    6.20    0.90
  -3  -5  -2  222.88    7.50
  -3  -5  -2  214.08    7.80
   3  -5   2  210.18    7.40
   3  -5   2  205.38    7.80
   3  -5   2  197.98    8.40
   3  -5   2  215.18    7.60
   3  -5   2  195.68    7.50
  -3   5  -2  219.28    7.00
  -3   5  -2  219.08    7.50
  -3   5  -2  213.98    8.30
  -3   5  -2  221.78    7.60
  -3   5  -2  206.08    7.70
  -5  -5  -2  158.58    6.20
   5  -5   2  161.38    7.10
   5  -5   2  151.48    6.70
   5  -5   2  156.38    6.80
   5  -5   2  149.79    7.70
  -5  -5  -2  156.88    7.20
   5  -5   2  153.28    4.80
   5  -5   2  162.78    7.60
  -5   5  -2  165.98    6.40
  -5   5  -2  160.18    6.10
  -5   5  -2  154.88    7.30
  -5   5  -2  156.38    7.00
   7  -5   2  431.06   14.50
  -7  -5  -2  433.46   14.30
   7  -5   2  453.85   12.00
   7  -5   2  443.36   14.00
   7  -5   2  442.96   14.90
  -7  -5  -2  464.65   12.40
   7  -5   2  432.46   14.40
   7  -5   2  430.36   14.10
   7  -5   2  414.66   13.70
   7   5   2  448.16   10.20
   7   5   2  449.95   10.20
  -7   5  -2  429.46   14.20
  -7   5  -2  452.95   13.10
  -7   5  -2  426.26   14.20
  -9  -5  -2  385.76   10.90
   9  -5   2  359.36   11.50
   9  -5   2  386.26   10.50
   9  -5   2  368.76   13.60
  -9  -5  -2  380.66   10.00
  -9  -5  -2  363.66   11.10
   9  -5   2  368.66   13.30
   9  -5   2  355.06   13.90
   9  -5   2  371.76   13.50
   9  -5   2  362.46   14.10
   9   5   2  381.96    9.20
  -9   5  -2  356.06   13.30
   9   5   2  366.76    9.80
   9   5   2  378.36    9.90
  -9   5  -2  372.96   13.80
   9   5   2  364.76    9.40
  11  -5   2  115.59    7.20
 -11  -5  -2   97.99    4.70
 -11  -5  -2  108.29    5.20
  11  -5   2  104.79    9.00
 -11  -5  -2  113.69    5.80
  11  -5   2  109.19    4.60
  11  -5   2  109.29    8.60
 -11  -5  -2  105.09    4.20
  11  -5   2  101.29    8.20
 -11  -5  -2  100.69    6.00
  11   5   2  112.39    5.40
 -11   5  -2  113.19    8.60
  11   5   2  110.59    5.50
  13  -5   2  171.48   11.50
 -13  -5  -2  187.08    8.30
 -13  -5  -2  162.88   10.80
  13  -5   2  182.48   10.30
 -13  -5  -2  180.98    6.50
  13  -5   2  178.28   12.10
  13  -5   2  163.78   11.70
  13   5   2  187.68    9.80
 -15  -5  -2    9.10    4.50
  15  -5   2    7.30    6.60
  15  -5   2    4.70    6.80
  15  -5   2   -2.20    5.40
 -15   5  -2    2.70    5.90
  17  -5   2   81.29   11.70
  17  -5   2   79.39   10.60
  17  -5   2   58.89   12.70
 -17   5  -2   70.79   10.80
  18  -6  -2   33.30   11.60
  18  -6  -2   13.20    8.90
 -18  -6   2    6.00    7.30
  18   6  -2   24.80   10.90
 -18   6   2   16.90   12.90
 -18   6   2    8.70   10.30
  16  -6  -2   27.90    7.70
 -16  -6   2   36.70    6.40
  16  -6  -2   29.40    9.70
 -16  -6   2   21.60    5.60
 -16  -6   2   30.10    6.70
  16  -6  -2   34.40    9.00
  16  -6  -2   26.10    8.20
  16   6  -2   32.60    9.90
 -16   6   2   23.90    8.10
 -16   6   2   47.10   10.10
  14  -6  -2   13.50    6.20
  14  -6  -2    3.30    6.20
 -14  -6   2   10.30    4.30
  14  -6  -2    8.70    5.00
 -14  -6   2    2.30    3.70
 -14  -6   2   10.10    4.20
  14   6  -2   13.10    6.20
 -14   6   2    3.10    6.00
 -14   6   2    7.00    6.60
 -14   6   2   12.60    7.40
 -12  -6   2   10.20    3.00
 -12  -6   2    2.50    2.90
 -12  -6   2   -6.90    3.10
  12  -6  -2    8.20    3.90
 -12  -6   2    2.10    2.80
  12  -6  -2    0.50    4.40
 -12   6   2   -4.30    4.70
 -12   6   2    5.40    4.30
  12   6  -2    5.60    4.90
 -12   6   2    3.00    4.80
 -10  -6   2  631.74   16.30
 -10  -6   2  620.24   16.50
  10  -6  -2  632.24   20.00
  10  -6  -2  616.14   20.00
 -10  -6   2  633.94   16.80
 -10  -6   2  624.94   17.20
 -10   6   2  610.34   20.60
 -10   6   2  631.54   20.30
 -10   6   2  618.34   20.00
  10   6  -2  621.84   20.00
  -8  -6   2    8.70    2.20
  -8  -6   2    5.90    1.80
  -8  -6   2    6.60    1.80
  -8  -6   2    8.50    2.10
   8  -6  -2    3.90    2.90
   8  -6  -2    1.40    2.80
   8  -6  -2    9.20    3.30
   8  -6  -2   11.50    3.00
  -8  -6   2   10.00    1.60
   8  -6  -2   11.40    2.90
   8   6  -2   10.80    2.50
  -8   6   2    6.00    3.00
   8   6  -2    5.70    2.10
  -8   6   2    6.50    3.20
   8   6  -2    7.60    3.00
  -8   6   2    5.90    3.00
  -8   6   2    6.60    3.30
   6  -6  -2   33.50    4.30
  -6  -6   2   34.70    3.00
   6  -6  -2   35.60    4.40
  -6  -6   2   38.00    2.90
   6  -6  -2   38.50    3.70
  -6  -6   2   29.40    3.00
   6  -6  -2   27.40    3.90
   6  -6  -2   35.80    3.90
   6  -6  -2   31.40    4.00
  -6  -6   2   35.70    2.60
   6   6  -2   34.00    4.20
   6   6  -2   37.30    2.80
  -6   6   2   31.60    3.80
  -6   6   2   40.20    4.50
   6   6  -2   38.30    3.10
  -6   6   2   37.70    4.40
  -6   6   2   36.80    4.40
  -4  -6   2   18.50    2.10
   4  -6  -2   24.70    3.20
  -4  -6   2   25.60    2.80
  -4  -6   2   14.50    2.20
   4  -6  -2   13.70    2.20
   4  -6  -2   23.40    3.10
   4  -6  -2   15.40    2.30
   4  -6  -2   21.50    2.90
  -4  -6   2   19.30    2.20
  -4  -6   2   11.80    2.30
   4  -6  -2   13.10    2.70
   4   6  -2   16.00    1.90
  -4   6   2   15.50    2.10
   4   6  -2   15.30    1.80
   4   6  -2   20.70    2.90
  -4   6   2   21.90    3.20
  -4   6   2   12.70    2.50
  -4   6   2   11.30    2.20
   4   6  -2   16.90    2.50
   2  -6  -2  343.67    9.80
   2  -6  -2  334.77    9.30
  -2  -6   2  343.57   10.90
   2  -6  -2  330.77   11.30
   2  -6  -2  339.07    9.60
  -2  -6   2  343.37    9.00
  -2  -6   2  336.57    9.50
  -2  -6   2  338.17    9.40
  -2  -6   2  330.07    9.30
   2  -6  -2  341.77   10.00
   2  -6  -2  335.67   10.60
   2   6  -2  352.26   10.60
  -2   6   2  339.07    8.30
   2   6  -2  333.77    9.10
  -2   6   2  331.87    9.90
  -2   6   2  345.17    8.30
   2   6  -2  335.27    9.10
  -2   6   2  334.37    9.70
   0  -6   2  282.07    8.50
   0  -6  -2  278.97    9.80
   0  -6   2  280.47    8.60
   0  -6   2  286.17    8.70
   0  -6  -2  280.27    7.20
   0  -6   2  267.97    9.90
   0  -6  -2  279.77    7.90
   0  -6  -2  279.87    9.40
   0  -6   2  285.17    8.20
   0  -6  -2  278.97    7.60
   0   6  -2  290.07    8.50
   0   6   2  284.07    7.80
   0   6  -2  282.87    8.40
   0   6   2  287.97    7.80
   0   6  -2  279.77    9.70
   0   6  -2  288.17    7.50
   0   6  -2  289.97    7.20
   2  -6   2   96.69    4.90
   2  -6   2   96.09    4.70
   2  -6   2   94.79    4.80
  -2  -6  -2   97.09    5.20
  -2  -6  -2   93.79    2.70
   2  -6   2   94.19    5.90
   2  -6   2   85.39    4.90
  -2  -6  -2   96.49    3.00
  -2  -6  -2   93.39    5.10
  -2   6  -2   92.69    4.70
  -2   6  -2   95.69    4.10
  -2   6  -2   92.29    5.70
  -2   6  -2   91.79    4.30
  -2   6  -2   96.99    4.80
  -4  -6  -2  169.28    6.90
   4  -6   2  159.48    6.90
   4  -6   2  160.18    7.30
   4  -6   2  160.28    6.90
   4  -6   2  163.88    7.10
  -4  -6  -2  155.68    6.50
   4  -6   2  158.38    8.10
  -4  -6  -2  152.28    7.20
   4  -6   2  166.18    7.20
  -4   6  -2  161.88    6.20
  -4   6  -2  164.18    7.20
  -4   6  -2  157.48    6.20
  -6  -6  -2  312.07    9.80
  -6  -6  -2  315.27   11.50
   6  -6   2  310.87   11.30
  -6  -6  -2  320.37   10.30
   6  -6   2  317.07   11.70
   6  -6   2  313.87   11.10
   6  -6   2  335.57   12.70
   6  -6   2  315.67   11.70
   6  -6   2  311.17    8.40
  -6   6  -2  291.47   11.70
  -6   6  -2  312.17   10.20
  -6   6  -2  313.27   11.40
  -6   6  -2  301.27   10.10
  -8  -6  -2   30.40    3.60
   8  -6   2   34.30    5.10
   8  -6   2   27.10    4.60
  -8  -6  -2   30.60    3.60
   8  -6   2   31.60    4.20
   8  -6   2   27.90    3.80
   8  -6   2   28.50    3.20
   8  -6   2   28.10    4.20
  -8   6  -2   24.90    4.20
  -8   6  -2   25.00    4.10
  10  -6   2  171.38   10.50
  10  -6   2  152.68    9.20
  10  -6   2  171.58    7.80
 -10  -6  -2  166.08    7.20
  10  -6   2  183.38    7.10
 -10  -6  -2  176.48    6.20
  10  -6   2  173.28   10.70
  10  -6   2  173.18   10.10
 -10   6  -2  170.68    9.90
  10   6   2  159.78    5.90
  10   6   2  172.58    5.60
  12  -6   2   77.29    9.20
  12  -6   2   57.39    8.00
 -12  -6  -2   72.99    5.70
  12  -6   2   54.29    6.80
 -12  -6  -2   70.19    5.20
  12  -6   2   56.49    7.40
 -12   6  -2   68.49    8.50
  12   6   2   63.79    5.20
  14  -6   2   15.70    7.10
  14  -6   2   13.90    6.90
  14  -6   2    6.90    5.50
  14  -6   2   17.10    5.50
 -14   6  -2   20.60    6.10
  16  -6   2  149.49   13.00
  16  -6   2  158.58   16.40
  16  -6   2  168.28   16.60
  16  -6   2  161.28   15.30
 -16   6  -2  146.89   14.80
  17  -7  -2  398.16   25.90
  17  -7  -2  392.16   22.90
  17  -7  -2  369.66   20.00
 -17  -7   2  395.76   17.20
  17   7  -2  382.06   23.30
 -17   7   2  428.46   23.40
 -17   7   2  371.16   25.40
 -15  -7   2  180.48   10.00
  15  -7  -2  174.48   15.10
 -15  -7   2  172.48   10.80
  15  -7  -2  193.28   13.30
  15  -7  -2  174.08   17.60
  15  -7  -2  200.68   16.70
 -15  -7   2  190.98   10.80
 -15   7   2  199.18   15.30
  15   7  -2  208.98   15.90
  13  -7  -2  108.29    9.40
 -13  -7   2   98.69    7.60
 -13  -7   2  107.99    7.20
  13  -7  -2  101.79   11.40
  13  -7  -2  100.59   11.00
  13  -7  -2  102.09   10.30
 -13  -7   2   99.39    6.90
 -13   7   2  110.09   11.00
  13   7  -2   86.29   10.70
 -13   7   2  112.79   11.50
 -13   7   2  125.19   13.30
  11  -7  -2  119.29    9.30
 -11  -7   2   93.59    6.30
  11  -7  -2  115.79    8.00
  11  -7  -2  110.99    9.70
 -11  -7   2  101.19    6.10
 -11  -7   2   96.29    6.10
  11  -7  -2   97.79    9.40
 -11  -7   2   98.99    5.80
  11   7  -2   96.19    9.20
 -11   7   2  100.39   10.30
 -11   7   2  110.39    9.60
 -11   7   2  101.99    9.40
  -9  -7   2  598.74   15.50
  -9  -7   2  584.14   14.00
   9  -7  -2  602.44   19.90
   9  -7  -2  605.74   18.70
  -9  -7   2  576.04   15.80
   9  -7  -2  597.14   19.30
  -9  -7   2  586.74   15.20
  -9  -7   2  564.94   15.10
   9  -7  -2  593.34   17.00
   9   7  -2  605.04   19.10
  -9   7   2  596.04   19.10
  -9   7   2  618.44   19.70
  -9   7   2  596.24   19.90
   7  -7  -2  841.82   22.50
  -7  -7   2  860.21   20.30
  -7  -7   2  868.21   21.00
   7  -7  -2  855.21   23.90
   7  -7  -2  882.81   23.30
   7  -7  -2  885.01   24.90
  -7  -7   2  886.11   20.30
   7  -7  -2  872.01   22.60
  -7   7   2  907.51   23.90
  -7   7   2  889.11   22.00
  -7   7   2  898.71   24.20
   7   7  -2  852.01   23.40
  -7   7   2  805.62   30.80
   7   7  -2  855.31   20.20
   7   7  -2  854.91   19.60
   5  -7  -2  326.77   12.50
  -5  -7   2  331.77    9.00
  -5  -7   2  321.57   10.50
  -5  -7   2  341.57   10.50
   5  -7  -2  328.17   11.40
   5  -7  -2  315.77   10.40
   5  -7  -2  332.67   11.30
   5  -7  -2  320.67   10.80
   5  -7  -2  334.97   11.20
  -5  -7   2  312.57    9.70
  -5  -7   2  318.17    9.10
   5   7  -2  339.27   10.40
  -5   7   2  331.77   11.40
  -5   7   2  320.27   11.20
  -5   7   2  331.47   11.60
  -5   7   2  330.37    9.80
   5   7  -2  328.07    8.90
   5   7  -2  325.67   10.90
   5   7  -2  327.67    8.50
   3  -7  -2    5.00    1.70
   3  -7  -2    5.10    2.40
  -3  -7   2    5.90    1.60
  -3  -7   2    3.90    1.40
   3  -7  -2    6.40    1.90
   3  -7  -2    2.30    1.80
   3  -7  -2    0.10    1.70
  -3  -7   2    5.60    2.40
   3  -7  -2    2.50    2.00
  -3  -7   2    2.60    1.40
  -3  -7   2    0.20    1.40
  -3  -7   2    3.90    1.60
   3   7  -2    3.10    1.40
  -3   7   2    3.10    1.20
  -3   7   2    5.20    1.80
  -3   7   2    1.00    1.30
   3   7  -2    3.20    2.10
   3   7  -2    5.80    1.60
  -3   7   2    1.10    1.90
  -1  -7   2 1094.09   25.30
  -1  -7   2 1056.89   25.10
   1  -7  -2 1078.19   24.80
  -1  -7   2 1073.69   27.40
   1  -7  -2 1046.60   27.60
  -1  -7   2 1131.09   24.00
  -1  -7   2 1087.09   25.40
   1  -7  -2 1125.99   25.30
   1  -7  -2  974.20   25.70
  -1  -7   2 1134.09   24.90
   1  -7  -2 1110.09   26.90
   1   7  -2 1107.99   25.00
   1   7  -2 1108.89   25.00
   1   7  -2 1086.09   27.00
  -1   7   2  996.70   24.70
  -1   7   2 1115.29   25.20
  -1   7   2 1123.59   25.20
   1  -7   2 1512.35   34.00
  -1  -7  -2 1500.25   32.80
  -1  -7  -2 1520.65   32.10
   1  -7   2 1501.95   34.70
  -1  -7  -2 1499.85   32.40
   1  -7   2 1505.85   34.70
  -1  -7  -2 1546.05   36.30
  -1  -7  -2 1574.54   35.80
   1  -7   2 1463.75   36.70
   1  -7   2 1492.45   34.40
   1  -7   2 1529.15   35.30
  -1  -7  -2 1540.75   32.40
  -1   7  -2 1538.85   32.70
  -1   7  -2 1490.75   33.10
   1   7   2 1491.45   32.50
  -1   7  -2 1513.25   34.40
  -1   7  -2 1499.75   36.20
  -1   7  -2 1524.75   34.30
  -3  -7  -2    1.10    2.30
  -3  -7  -2    5.60    2.30
   3  -7   2    4.00    1.90
   3  -7   2    2.00    1.90
   3  -7   2    1.70    1.80
   3  -7   2    3.10    2.50
  -3  -7  -2    5.50    2.00
   3  -7   2    3.70    2.00
   3  -7   2    1.80    1.60
  -3   7  -2   -1.00    1.70
  -3   7  -2    3.60    1.70
  -3   7  -2    4.70    2.20
  -3   7  -2    0.90    2.40
   5  -7   2    5.60    3.00
   5  -7   2    4.70    2.80
  -5  -7  -2   10.30    2.90
  -5  -7  -2   14.10    3.00
   5  -7   2   10.60    2.70
   5  -7   2    8.20    3.10
  -5  -7  -2   11.20    2.50
   5  -7   2   11.10    1.40
   5  -7   2    9.10    2.50
   5  -7   2    8.20    2.70
  -5   7  -2   14.60    2.70
  -5   7  -2   10.60    3.50
  -5   7  -2    9.90    2.90
  -5   7  -2   15.60    2.70
   7  -7   2    6.00    3.00
  -7  -7  -2    3.40    2.60
  -7  -7  -2    4.90    2.20
   7  -7   2    5.20    2.90
   7  -7   2    2.30    2.60
   7  -7   2    7.00    3.90
   7  -7   2    2.20    1.40
   7  -7   2    0.70    3.00
   7  -7   2    3.20    2.60
  -7   7  -2    2.10    2.50
  -7   7  -2    7.10    3.20
  -7   7  -2    5.80    3.10
   9  -7   2 2297.47   55.89
   9  -7   2 2376.16   54.99
  -9  -7  -2 2270.57   51.09
   9  -7   2 2329.87   51.19
  -9  -7  -2 2261.87   52.29
   9  -7   2 2329.97   56.69
   9  -7   2 2345.67   55.49
   9  -7   2 2397.46   51.89
  -9   7  -2 2332.57   55.59
  11  -7   2  190.08    8.90
  11  -7   2  197.78    8.30
 -11  -7  -2  195.38    8.70
  11  -7   2  186.28   11.00
  11  -7   2  205.98   12.00
 -11  -7  -2  184.38    6.70
  11  -7   2  189.18   12.60
 -11   7  -2  184.98   11.50
  13  -7   2   60.89    8.40
  13  -7   2   90.09   12.20
  13  -7   2   67.19    8.70
  13  -7   2   77.39    8.10
 -13   7  -2   77.89    9.60
  15  -7   2  101.19   12.50
  15  -7   2  123.69   11.00
  15  -7   2  117.39   14.90
  15  -7   2  128.39   14.70
 -15   7  -2  104.49   13.40
  17  -7   2  343.47   24.40
  17  -7   2  315.77   22.20
 -17   7  -2  333.17   21.50
 -16  -8   2  379.76   15.80
  16  -8  -2  396.36   23.20
  16  -8  -2  398.46   23.70
  16  -8  -2  420.76   22.20
  16  -8  -2  398.76   19.80
  16   8  -2  390.86   22.90
 -16   8   2  418.56   25.70
 -16   8   2  389.66   22.60
 -14  -8   2   26.60    4.40
  14  -8  -2   27.90    6.90
  14  -8  -2   23.40    8.10
  14  -8  -2   36.30    8.20
  14  -8  -2   47.10    9.20
 -14  -8   2   30.40    5.20
 -14   8   2   35.60    8.90
  14   8  -2   40.80    8.90
 -14   8   2   30.00    8.20
 -12  -8   2  780.62   19.70
  12  -8  -2  782.12   26.30
  12  -8  -2  813.62   26.20
 -12  -8   2  769.72   21.00
 -12  -8   2  779.92   19.90
  12  -8  -2  755.72   23.10
  12  -8  -2  751.42   25.00
 -12   8   2  769.22   26.90
  12   8  -2  766.32   25.60
 -12   8   2  796.32   26.20
  10  -8  -2 1061.19   30.70
  10  -8  -2 1092.99   31.60
 -10  -8   2 1041.10   26.10
 -10  -8   2 1108.39   25.90
 -10  -8   2 1111.29   26.40
  10  -8  -2 1087.39   30.90
  10  -8  -2 1060.79   28.00
 -10  -8   2 1079.69   25.30
 -10   8   2 1098.99   31.80
 -10   8   2 1090.69   31.10
 -10   8   2 1113.99   30.90
  10   8  -2 1109.99   30.70
  -8  -8   2  205.78    7.10
   8  -8  -2  200.88    9.60
   8  -8  -2  204.88   10.60
  -8  -8   2  208.98    6.70
  -8  -8   2  193.78    6.60
   8  -8  -2  207.58   11.20
  -8  -8   2  190.88    7.30
  -8  -8   2  203.18    7.90
   8  -8  -2  201.88   10.00
  -8   8   2  202.78   11.50
   8   8  -2  196.68    6.80
   8   8  -2  206.78   10.40
  -8   8   2  206.08   10.60
  -8   8   2  183.98   10.40
   6  -8  -2  843.72   23.30
  -6  -8   2  825.12   21.70
   6  -8  -2  830.32   22.70
   6  -8  -2  846.42   23.40
   6  -8  -2  896.31   22.80
   6  -8  -2  833.32   22.00
  -6  -8   2  818.92   21.90
  -6  -8   2  846.52   20.50
  -6  -8   2  859.11   19.90
   6  -8  -2  850.51   24.80
  -6  -8   2  828.22   19.60
  -6   8   2  826.12   23.20
   6   8  -2  834.02   18.50
  -6   8   2  835.72   23.00
  -6   8   2  856.61   23.70
   6   8  -2  823.32   19.30
   4  -8  -2  313.97   11.00
   4  -8  -2  334.77   12.90
   4  -8  -2  311.27   10.20
   4  -8  -2  307.57   10.80
  -4  -8   2  307.07    9.10
  -4  -8   2  311.97   11.30
  -4  -8   2  317.77    9.70
  -4  -8   2  323.77    9.10
  -4  -8   2  324.67   10.00
  -4  -8   2  323.57    9.30
   4  -8  -2  308.87   11.50
   4  -8  -2  312.17   10.70
   4   8  -2  313.57    8.50
  -4   8   2  319.27   10.40
  -4   8   2  315.57   11.10
  -4   8   2  313.57    9.20
   4   8  -2  331.27   11.00
  -4   8   2  316.37   10.80
   4   8  -2  301.07    8.80
  -2  -8   2  533.05   13.60
   2  -8  -2  542.35   14.30
  -2  -8   2  489.15   14.60
   2  -8  -2  528.95   13.80
  -2  -8   2  523.45   16.20
   2  -8  -2  526.75   14.00
  -2  -8   2  518.65   14.00
  -2  -8   2  521.15   13.80
   2  -8  -2  527.85   15.90
  -2  -8   2  525.05   13.80
   2  -8  -2  522.75   16.90
   2  -8  -2  525.95   14.50
   2  -8  -2  527.35   14.20
  -2   8   2  513.55   14.40
   2   8  -2  528.85   13.40
   2   8  -2  514.45   15.80
   2   8  -2  525.15   13.50
   0  -8   2  447.06   10.30
   0  -8  -2  434.76   14.60
   0  -8  -2  436.56   11.70
   0  -8   2  447.56   12.10
   0  -8  -2  435.56   11.20
   0  -8   2  408.36   14.50
   0  -8   2  443.66   12.70
   0  -8   2  427.76   12.30
   0  -8   2  437.86   12.50
   0  -8  -2  441.36   11.70
   0  -8   2  436.16   12.90
   0  -8  -2  438.16   14.00
   0  -8  -2  432.96   11.30
   0   8  -2  422.76   12.20
   0   8  -2  426.36   14.30
   0   8   2  448.46   11.50
   2  -8   2    4.20    2.70
   2  -8   2    2.70    2.00
  -2  -8  -2    3.80    0.90
  -2  -8  -2    6.10    2.40
  -2  -8  -2    3.40    2.80
  -2  -8  -2    4.50    0.90
   2  -8   2    0.80    1.90
  -2  -8  -2    2.90    1.10
   2  -8   2    4.20    2.10
  -2  -8  -2    3.20    2.20
  -2  -8  -2    3.40    1.20
   2  -8   2    3.40    1.70
  -2  -8  -2    4.10    1.00
   2  -8   2    4.80    2.10
  -2   8  -2    2.70    1.90
  -2   8  -2   -0.70    1.50
  -2   8  -2    2.90    3.20
   4  -8   2  847.12   23.10
  -4  -8  -2  844.82   23.20
   4  -8   2  865.81   23.30
   4  -8   2  840.02   22.70
   4  -8   2  861.81   22.90
  -4  -8  -2  896.61   23.50
  -4  -8  -2  866.11   23.10
   4  -8   2  881.01   23.70
   4  -8   2  894.61   25.50
  -4   8  -2  881.51   21.60
  -4   8  -2  871.81   23.40
  -4   8  -2  913.61   21.30
   6  -8   2 1960.90   46.20
   6  -8   2 1965.40   45.50
  -6  -8  -2 1941.31   45.80
   6  -8   2 1975.30   46.40
   6  -8   2 1974.40   41.40
  -6  -8  -2 1910.81   46.90
  -6  -8  -2 1986.00   45.40
   6  -8   2 1904.11   48.70
   6  -8   2 2026.80   47.60
   6  -8   2 1988.90   46.90
  -6   8  -2 2009.20   44.60
  -6   8  -2 1959.40   47.00
  -6   8  -2 1963.00   44.80
  -8  -8  -2  179.08    8.00
   8  -8   2  185.88   10.20
  -8  -8  -2  189.28    8.90
   8  -8   2  170.58   10.30
   8  -8   2  177.98    8.90
   8  -8   2  177.28    9.70
   8  -8   2  204.88   11.80
   8  -8   2  187.38   10.30
  -8   8  -2  178.48   10.20
  -8   8  -2  183.98    9.00
  10  -8   2  452.95   14.50
 -10  -8  -2  417.46   16.10
  10  -8   2  448.86   13.30
  10  -8   2  445.06   17.30
  10  -8   2  452.15   16.90
  10  -8   2  425.86   18.10
  10  -8   2  454.35   18.70
 -10  -8  -2  431.16   14.20
 -10  -8  -2  438.36   13.00
 -10   8  -2  451.35   17.40
 -10   8  -2  428.26   15.30
 -12  -8  -2  748.13   20.40
  12  -8   2  770.42   20.90
  12  -8   2  715.33   25.00
  12  -8   2  748.13   24.60
  12  -8   2  658.53   29.00
 -12   8  -2  742.73   25.10
  14  -8   2  152.48   15.90
  14  -8   2  159.38   10.90
  14  -8   2  158.68   14.30
 -14   8  -2  151.78   14.00
  16  -8   2   -0.60   11.10
  16  -8   2   -9.90    9.50
  16  -8   2   -0.70    9.40
 -16   8  -2    4.10    8.90
  15  -9  -2  958.20   34.60
  15  -9  -2  984.30   33.40
  15  -9  -2  953.40   34.20
 -15  -9   2  963.50   26.10
  15  -9  -2  939.31   29.60
 -15   9   2  963.50   33.80
  13  -9  -2  228.98   15.10
  13  -9  -2  228.78   16.40
  13  -9  -2  235.78   16.00
 -13  -9   2  215.58    8.20
  13  -9  -2  196.58   12.30
 -13  -9   2  208.78    9.60
 -13   9   2  184.18   17.20
 -13   9   2  202.18   15.30
  11  -9  -2   51.19    6.10
 -11  -9   2   50.09    4.30
  11  -9  -2   41.60    8.40
 -11  -9   2   43.20    4.00
 -11  -9   2   44.20    5.10
  11  -9  -2   48.40    7.00
 -11   9   2   46.80    7.40
 -11   9   2   40.80    8.30
   9  -9  -2  268.57   13.00
  -9  -9   2  245.78    9.00
  -9  -9   2  271.97    7.80
  -9  -9   2  258.17    7.80
   9  -9  -2  266.57   14.00
   9  -9  -2  263.47   12.50
   9  -9  -2  268.87   13.40
  -9  -9   2  257.17    9.40
   9  -9  -2  261.77   13.20
  -9  -9   2  257.07    8.70
   9   9  -2  251.97    7.60
  -9   9   2  243.18   12.70
  -9   9   2  270.37   14.10
   7  -9  -2  614.74   21.40
   7  -9  -2  650.13   20.10
   7  -9  -2  617.84   19.40
   7  -9  -2  593.94   21.60
  -7  -9   2  647.94   16.30
  -7  -9   2  652.43   16.30
  -7  -9   2  643.74   15.30
  -7  -9   2  647.44   15.70
   7  -9  -2  670.53   19.50
  -7  -9   2  636.64   18.10
  -7   9   2  655.53   20.70
  -7   9   2  631.14   20.00
  -7   9   2  625.14   17.50
   7   9  -2  631.04   14.90
   5  -9  -2 3049.29   68.59
  -5  -9   2 3014.80   68.29
  -5  -9   2 3001.30   65.79
  -5  -9   2 2963.10   64.79
   5  -9  -2 3010.50   68.19
   5  -9  -2 3015.40   67.19
  -5  -9   2 3018.70   64.79
  -5  -9   2 3146.39   66.99
   5  -9  -2 3070.29   68.09
   5  -9  -2 3002.80   68.49
   5  -9  -2 3065.79   67.79
   5  -9  -2 3066.09   71.09
  -5  -9   2 3084.59   65.39
  -5   9   2 3081.49   65.19
  -5   9   2 2937.91   68.19
  -5   9   2 3175.78   69.09
  -5   9   2 3144.19   65.59
   5   9  -2 3143.89   64.39
  -3  -9   2  121.89    5.60
   3  -9  -2  124.89    6.00
   3  -9  -2  124.99    6.50
   3  -9  -2  101.89    8.10
  -3  -9   2  121.99    5.70
  -3  -9   2  128.59    5.40
   3  -9  -2  123.99    6.40
  -3  -9   2  121.19    5.60
   3  -9  -2  126.59    6.60
  -3  -9   2  121.59    7.60
  -3  -9   2  129.99    5.60
   3  -9  -2  122.49    6.30
   3  -9  -2  128.29    6.20
   3   9  -2  130.39    5.60
  -3   9   2  131.69    7.10
   3   9  -2  124.19    7.70
  -3   9   2  118.59    6.60
  -1  -9   2 1763.52   39.30
  -1  -9   2 1701.63   42.50
   1  -9  -2 1747.73   38.80
   1  -9  -2 1748.43   42.90
  -1  -9   2 1758.52   38.90
  -1  -9   2 1767.02   37.60
   1  -9  -2 1709.63   38.60
  -1  -9   2 1727.43   39.50
   1  -9  -2 1755.52   39.30
  -1  -9   2 1717.13   39.80
   1  -9  -2 1747.73   39.30
  -1  -9   2 1713.03   39.10
   1  -9  -2 1723.23   38.40
   1   9  -2 1736.03   41.80
  -1   9   2 1709.73   39.00
   1  -9   2 1105.89   30.20
  -1  -9  -2 1112.79   29.50
   1  -9   2 1103.19   26.90
  -1  -9  -2 1114.69   25.50
   1  -9   2 1107.49   27.80
  -1  -9  -2 1079.69   25.00
  -1  -9  -2 1126.09   25.30
   1  -9   2 1108.89   27.40
   1  -9   2 1112.59   27.00
   1  -9   2 1127.59   27.30
  -1  -9  -2 1130.89   24.70
  -1  -9  -2 1109.79   24.70
  -1   9  -2 1073.39   32.10
  -1   9  -2 1112.49   23.80
  -1   9  -2 1121.19   23.60
   3  -9   2  564.54   16.10
   3  -9   2  527.45   16.20
   3  -9   2  535.25   16.30
  -3  -9  -2  543.75   17.20
   3  -9   2  545.55   16.80
   3  -9   2  529.25   18.50
  -3  -9  -2  534.65   16.50
   3  -9   2  560.44   16.20
  -3   9  -2  527.65   14.40
  -3   9  -2  549.65   14.00
   5  -9   2    7.40    3.30
   5  -9   2    9.40    3.20
   5  -9   2    0.80    3.10
   5  -9   2    1.10    2.80
  -5  -9  -2    5.40    2.90
  -5  -9  -2    8.70    3.80
   5  -9   2    0.70    2.90
  -5   9  -2    8.00    3.00
  -5   9  -2    4.70    2.60
  -5   9  -2    4.00    3.30
   7  -9   2  455.15   16.70
   7  -9   2  441.46   15.90
   7  -9   2  469.25   18.50
  -7  -9  -2  464.65   14.80
   7  -9   2  452.85   10.80
   7  -9   2  463.15   16.50
   7  -9   2  437.16   15.80
  -7   9  -2  480.25   14.70
  -7   9  -2  443.26   16.50
   9  -9   2  617.34   21.10
   9  -9   2  593.44   21.40
  -9  -9  -2  608.14   17.70
   9  -9   2  657.33   21.30
   9  -9   2  582.64   22.50
   9  -9   2  571.14   23.70
  -9   9  -2  656.03   19.30
  -9   9  -2  607.04   21.10
  11  -9   2  825.62   26.50
  11  -9   2  786.02   27.90
 -11  -9  -2  792.72   20.40
  11  -9   2  755.92   20.40
  11  -9   2  788.72   25.60
 -11   9  -2  800.52   23.80
 -11   9  -2  767.52   26.20
  13  -9   2   70.49   11.20
  13  -9   2   80.39    9.30
  13  -9   2   77.59   10.10
  13  -9   2   70.09    9.60
 -13   9  -2   68.29    8.30
 -13   9  -2   68.39   10.20
  15  -9   2  717.83   30.10
  15  -9   2  705.83   28.50
  15  -9   2  748.33   31.50
 -15   9  -2  729.53   29.20
 -15   9  -2  720.83   25.80
  14 -10  -2  269.37   20.90
  14 -10  -2  247.78   17.60
  14 -10  -2  257.37   19.30
 -14 -10   2  258.77   11.00
 -14  10   2  226.48   18.00
 -12 -10   2 1124.99   26.30
  12 -10  -2 1080.59   33.80
  12 -10  -2 1053.29   33.00
  12 -10  -2 1085.99   29.70
  12 -10  -2 1083.59   35.30
 -12  10   2 1055.59   33.70
  10 -10  -2  541.65   20.50
 -10 -10   2  540.95   15.40
  10 -10  -2  534.05   22.20
  10 -10  -2  558.94   20.00
 -10 -10   2  494.25   16.00
 -10  10   2  561.04   22.30
 -10  10   2  534.95   20.60
   8 -10  -2  124.59    8.90
  -8 -10   2  117.19    6.50
   8 -10  -2  121.59    9.80
  -8 -10   2  119.99    7.60
   8 -10  -2  124.99    9.50
   8 -10  -2  114.59    9.50
  -8 -10   2  118.39    5.60
  -8  10   2  117.09    8.90
  -8  10   2  110.19   10.40
  -8  10   2  118.99    7.90
  -8  10   2  105.99    9.70
   6 -10  -2   62.09    6.60
   6 -10  -2   62.69    7.00
   6 -10  -2   65.79    6.40
  -6 -10   2   62.09    6.60
  -6 -10   2   53.19    3.70
   6 -10  -2   64.89    6.80
  -6 -10   2   49.70    4.90
   6 -10  -2   61.69    8.00
  -6 -10   2   61.49    4.40
  -6 -10   2   57.79    3.60
  -6  10   2   58.39    6.90
  -6  10   2   46.40    5.30
  -6  10   2   49.10    6.30
  -6  10   2   61.49    5.80
   4 -10  -2 2107.79   49.40
  -4 -10   2 2184.38   46.90
   4 -10  -2 2122.69   49.50
  -4 -10   2 2124.69   50.69
  -4 -10   2 2216.98   47.80
   4 -10  -2 2169.48   52.79
   4 -10  -2 2128.59   48.90
  -4 -10   2 2073.69   46.50
  -4 -10   2 2126.29   47.30
   4 -10  -2 2079.09   48.90
  -4 -10   2 2129.69   46.30
   4 -10  -2 2107.09   48.20
   4  10  -2 2070.79   49.70
  -4  10   2 2106.09   49.30
  -4  10   2 2117.19   44.70
   2 -10  -2 1509.85   35.50
   2 -10  -2 1556.04   35.10
  -2 -10   2 1512.45   34.10
   2 -10  -2 1483.25   35.30
  -2 -10   2 1493.45   35.10
  -2 -10   2 1505.55   34.30
  -2 -10   2 1472.65   34.30
  -2 -10   2 1546.45   33.60
  -2 -10   2 1492.65   34.10
  -2 -10   2 1449.55   38.10
   2 -10  -2 1497.15   34.70
  -2 -10   2 1508.05   34.80
   2 -10  -2 1491.45   34.50
   2 -10  -2 1442.76   38.90
  -2  10   2 1475.25   35.10
   0 -10  -2   97.69    4.80
   0 -10  -2   79.09    7.50
   0 -10  -2   95.09    4.70
   0 -10   2   90.19    5.50
   0 -10   2   92.09    5.80
   0 -10   2   73.09    7.60
   0 -10   2   93.89    5.60
   0 -10  -2   96.09    5.10
   0 -10  -2   92.69    4.50
   0 -10   2   90.39    5.80
   0 -10   2   80.49    5.40
   0 -10  -2   84.89    4.80
   0  10   2   71.39    7.20
  -2 -10  -2  117.79    4.70
  -2 -10  -2  114.39    4.40
   2 -10   2  111.09    7.10
   2 -10   2  118.89    6.80
   2 -10   2  111.69    6.70
  -2 -10  -2  116.89    4.60
   2 -10   2  126.29    9.20
  -2 -10  -2  113.69    7.50
  -2 -10  -2  117.49    8.20
   2 -10   2  125.59    7.10
   2 -10   2  107.49    7.10
  -2  10  -2  117.79    4.20
  -2  10  -2  118.19    4.50
  -4 -10  -2 2395.76   56.79
   4 -10   2 2529.95   60.49
   4 -10   2 2482.15   56.39
   4 -10   2 2464.15   57.29
   4 -10   2 2411.26   56.29
  -4 -10  -2 2445.66   57.49
   4 -10   2 2424.96   56.89
  -4  10  -2 2514.75   53.39
  -4  10  -2 2461.65   54.09
   6 -10   2 1245.68   36.20
   6 -10   2 1271.57   33.00
   6 -10   2 1242.38   33.80
   6 -10   2 1240.68   32.70
   6 -10   2 1260.07   33.50
  -6 -10  -2 1270.87   32.70
  -6  10  -2 1278.27   33.60
  -6  10  -2 1247.08   30.40
  -6  10  -2 1287.87   31.00
   8 -10   2    5.70    4.40
  -8 -10  -2   11.90    4.00
   8 -10   2    9.80    6.10
   8 -10   2   -1.40    4.60
   8 -10   2   11.00    4.40
  -8  10  -2   15.00    4.30
  -8  10  -2   10.10    4.90
  10 -10   2  139.79   13.60
  10 -10   2  175.18   12.70
 -10 -10  -2  151.58    8.80
  10 -10   2  148.99   11.40
 -10  10  -2  125.09   15.00
 -10  10  -2  146.79   12.20
  12 -10   2  511.65   22.20
  12 -10   2  501.05   24.00
  12 -10   2  480.55   20.80
 -12  10  -2  486.45   21.90
 -12  10  -2  506.45   19.20
  14 -10   2 1082.69   38.80
  14 -10   2 1086.79   35.50
  14 -10   2 1051.09   36.70
 -14  10  -2 1086.69   36.60
 -14  10  -2 1093.49   33.00
  13 -11  -2  256.47   19.20
  13 -11  -2  241.08   17.80
  13 -11  -2  263.37   20.80
 -13  11   2  244.68   18.40
  11 -11  -2   15.30    7.10
  11 -11  -2   18.50    5.60
  11 -11  -2   24.20    8.50
  11 -11  -2   10.30    6.50
 -11  11   2   17.00    6.90
 -11  11   2   20.90    8.40
   9 -11  -2  207.98   12.20
  -9 -11   2  187.78    8.20
   9 -11  -2  215.58   13.10
   9 -11  -2  221.28   15.20
  -9 -11   2  197.68   10.40
  -9  11   2  190.58   13.30
  -9  11   2  210.38   11.00
   7 -11  -2 1625.04   40.20
   7 -11  -2 1493.65   42.30
  -7 -11   2 1569.34   39.20
   7 -11  -2 1574.84   40.60
  -7 -11   2 1589.54   35.20
   7 -11  -2 1550.34   43.50
  -7  11   2 1580.94   40.70
  -7  11   2 1581.34   36.60
  -5 -11   2  961.70   21.90
  -5 -11   2  968.70   23.40
  -5 -11   2  960.90   23.40
   5 -11  -2  953.10   25.80
   5 -11  -2  966.00   25.60
  -5 -11   2  942.61   27.10
  -5 -11   2  954.90   23.40
   5 -11  -2  882.41   29.50
  -5 -11   2  927.91   21.90
   5 -11  -2  950.90   26.40
  -5  11   2  961.10   26.40
   3 -11  -2    8.30    4.60
  -3 -11   2   -5.10    2.70
  -3 -11   2   -0.90    2.20
  -3 -11   2    1.10    2.10
   3 -11  -2    4.10    2.90
   3 -11  -2    3.60    2.80
  -3 -11   2    7.60    4.10
  -3 -11   2    5.20    2.50
   3 -11  -2    0.00    2.70
   3 -11  -2    3.90    2.80
  -3 -11   2    0.40    2.30
  -3  11   2    2.50    3.20
  -1 -11   2  878.21   23.00
  -1 -11   2  884.81   22.70
  -1 -11   2  870.21   22.60
   1 -11  -2  867.41   22.70
  -1 -11   2  897.81   26.90
   1 -11  -2  893.11   22.20
   1 -11  -2  922.71   27.50
   1 -11  -2  897.81   21.90
   1 -11  -2  899.01   22.80
  -1 -11   2  911.71   22.60
  -1 -11   2  898.11   23.50
   1 -11  -2  898.61   22.30
  -1  11   2  887.31   22.60
  -1 -11  -2 1688.53   37.30
  -1 -11  -2 1736.53   38.20
   1 -11   2 1706.43   44.60
  -1 -11  -2 1688.13   40.80
  -1 -11  -2 1733.43   37.90
   1 -11   2 1694.13   40.70
   1 -11   2 1735.23   40.10
   1 -11   2 1649.04   40.20
  -1 -11  -2 1760.72   44.10
   1 -11   2 1697.23   41.00
   1 -11   2 1690.23   40.10
  -1 -11  -2 1731.13   38.20
  -1 -11  -2 1681.43   37.10
  -3 -11  -2  798.52   24.10
   3 -11   2  793.72   22.50
   3 -11   2  758.92   22.60
   3 -11   2  792.02   21.90
   3 -11   2  777.32   21.90
   3 -11   2  789.32   25.80
  -3 -11  -2  750.92   19.10
  -3 -11  -2  777.82   22.80
  -3  11  -2  702.83   19.70
  -3  11  -2  801.92   17.90
   5 -11   2   49.80    6.00
  -5 -11  -2   43.90    6.30
   5 -11   2   41.20    5.90
   5 -11   2   27.10    5.20
  -5  11  -2   54.89    6.00
  -5  11  -2   39.30    4.80
  -7 -11  -2  391.86   15.00
   7 -11   2  367.76   15.20
   7 -11   2  374.86   16.10
   7 -11   2  394.16   16.10
   7 -11   2  386.46   18.50
  -7  11  -2  377.86   16.20
  -7  11  -2  382.76   13.90
   9 -11   2  828.72   25.80
   9 -11   2  785.42   29.10
  -9 -11  -2  787.92   23.30
   9 -11   2  814.72   26.70
  -9  11  -2  806.52   26.80
  -9  11  -2  797.02   23.60
  11 -11   2  915.61   33.20
  11 -11   2  882.61   30.30
  11 -11   2  876.41   29.20
 -11  11  -2  903.01   27.00
 -11  11  -2  912.01   30.60
  13 -11   2   14.90    9.90
  13 -11   2   38.30   11.60
  13 -11   2   23.00    9.00
 -13  11  -2   14.10    8.60
 -13  11  -2    6.10    9.60
  12 -12  -2 1035.10   33.30
  12 -12  -2 1027.20   37.10
  12 -12  -2 1007.20   34.30
 -12  12   2 1045.70   31.00
 -12  12   2  999.00   34.40
  10 -12  -2 1477.75   41.20
  10 -12  -2 1401.06   39.80
  10 -12  -2 1410.06   43.70
 -10  12   2 1476.25   36.90
 -10  12   2 1383.76   40.50
   8 -12  -2   24.20    6.30
  -8 -12   2   34.90    6.30
   8 -12  -2   30.50    8.00
   8 -12  -2   24.00    6.30
  -8  12   2   28.80    5.40
  -8  12   2   28.50    9.60
  -6 -12   2  376.96   15.80
   6 -12  -2  387.96   18.80
  -6 -12   2  397.06   11.70
   6 -12  -2  395.16   15.20
   6 -12  -2  401.86   15.70
  -6  12   2  347.67   15.80
   4 -12  -2  314.37   12.80
  -4 -12   2  327.27   11.30
  -4 -12   2  320.77   15.10
   4 -12  -2  331.47   16.50
  -4 -12   2  344.87    9.90
   4 -12  -2  349.07   13.40
  -4 -12   2  339.87   11.50
  -4 -12   2  328.37   10.30
  -4  12   2  332.87   13.40
  -2 -12   2  576.24   16.20
   2 -12  -2  587.34   16.90
  -2 -12   2  583.54   21.10
   2 -12  -2  579.04   17.40
   2 -12  -2  533.35   24.20
   2 -12  -2  584.74   16.40
  -2 -12   2  597.64   16.50
  -2 -12   2  562.94   16.60
   2 -12  -2  590.44   18.40
  -2 -12   2  597.04   19.70
  -2 -12   2  592.54   16.00
  -2  12   2  572.04   17.20
   0 -12   2  574.64   21.20
   0 -12   2  587.74   21.60
   0 -12  -2  596.94   16.50
   0 -12  -2  592.84   15.70
   0 -12  -2  587.14   15.40
   0 -12  -2  574.44   18.20
   0 -12   2  596.14   17.10
   0 -12  -2  617.54   21.80
   0 -12   2  616.44   17.80
   0 -12  -2  591.84   16.60
   0 -12   2  589.14   17.20
   0 -12   2  584.44   17.90
   2 -12   2   21.60    4.50
   2 -12   2   18.00    4.10
  -2 -12  -2   26.20    3.50
  -2 -12  -2   27.80    6.00
  -2 -12  -2   20.60    2.90
   2 -12   2   22.60    4.50
   2 -12   2   23.70    4.40
  -4 -12  -2  715.13   23.40
   4 -12   2  686.53   25.50
   4 -12   2  696.43   21.80
   4 -12   2  707.03   21.40
   6 -12   2 2055.09   50.39
   6 -12   2 2042.40   54.99
   6 -12   2 2039.30   50.99
  -6 -12  -2 2038.40   50.69
  -6  12  -2 2052.59   46.90
   8 -12   2  101.09   10.40
  -8 -12  -2   97.59    9.90
   8 -12   2  116.79   10.90
   8 -12   2   82.09   11.20
  -8  12  -2  102.29    9.90
  10 -12   2  290.27   16.70
  10 -12   2  304.37   20.60
  10 -12   2  290.47   17.60
 -10  12  -2  274.47   15.20
 -10  12  -2  287.37   17.90
  12 -12   2  664.63   26.90
  12 -12   2  669.13   27.90
  12 -12   2  659.33   30.90
 -12  12  -2  691.43   28.30
 -12  12  -2  656.33   24.90
  11 -13  -2   23.90    9.10
  11 -13  -2    8.10    8.00
  11 -13  -2   46.90   12.00
 -11  13   2   33.60   10.70
   9 -13  -2  428.46   20.00
   9 -13  -2  439.26   23.90
   9 -13  -2  452.35   19.40
  -9  13   2  460.55   20.80
   7 -13  -2  903.31   28.00
   7 -13  -2  922.61   32.40
  -7 -13   2  881.61   27.50
   7 -13  -2  881.71   27.00
  -5 -13   2   49.60    5.80
   5 -13  -2   50.89    6.70
   5 -13  -2   52.59    6.50
   5 -13  -2   53.09    9.00
  -5 -13   2   53.39    5.80
  -5 -13   2   52.29    8.10
  -5  13   2   53.99    7.50
  -3 -13   2   44.40    5.30
  -3 -13   2   37.10    4.40
  -3 -13   2   47.80    8.20
   3 -13  -2   46.50    5.40
  -3 -13   2   50.99    6.00
   3 -13  -2   59.09    9.10
   3 -13  -2   50.59    7.00
  -3  13   2   51.29    6.60
  -1 -13   2  331.67   12.50
  -1 -13   2  347.87   17.10
  -1 -13   2  342.37   12.30
   1 -13  -2  337.17   11.50
  -1 -13   2  352.66   12.70
   1 -13  -2  312.17   12.90
   1 -13  -2  322.37   16.80
   1 -13  -2  346.87   12.20
  -1 -13  -2  981.30   24.20
  -1 -13  -2 1008.00   31.20
  -1 -13  -2  955.00   22.70
   1 -13   2 1013.00   32.30
  -1 -13  -2 1001.10   24.20
   1 -13   2  988.70   27.00
   1 -13   2  981.50   26.30
  -3 -13  -2  151.88   15.50
   3 -13   2  166.78   14.10
   3 -13   2  195.48   10.80
   3 -13   2  201.68   10.90
   5 -13   2   11.10    6.90
  -5 -13  -2    7.00    5.80
   5 -13   2    5.20    4.60
   5 -13   2    7.40    5.00
   7 -13   2  219.68   14.00
  -7 -13  -2  218.58   13.90
   7 -13   2  240.48   14.10
   7 -13   2  208.78   17.40
   9 -13   2  708.33   26.10
   9 -13   2  706.83   30.00
   9 -13   2  718.43   25.50
  -9  13  -2  687.23   23.60
  11 -13   2  251.27   22.60
  11 -13   2  288.17   19.30
  11 -13   2  265.47   18.50
 -11  13  -2  247.98   17.90
  10 -14  -2  265.37   22.50
  10 -14  -2  283.17   19.00
  10 -14  -2  304.37   18.60
 -10  14   2  326.17   21.10
   8 -14  -2   22.60    7.50
   8 -14  -2   28.20    7.30
   8 -14  -2   21.30   10.50
  -8  14   2   18.60    9.10
   6 -14  -2   94.19   10.80
   6 -14  -2  100.79   10.60
   6 -14  -2   98.19   12.90
  -6  14   2  105.99   15.40
   4 -14  -2  100.69   14.30
  -4 -14   2   88.59    5.30
  -4 -14   2  105.09   12.90
   4 -14  -2  100.69    9.20
  -4 -14   2   72.89    7.30
   4 -14  -2   95.19    9.30
  -4  14   2   98.09   10.90
  -2 -14   2  217.68   10.40
   2 -14  -2  225.08   11.00
   2 -14  -2  230.58   10.60
  -2 -14   2  207.58   15.70
   2 -14  -2  222.18   16.50
   0 -14  -2  167.68   14.50
   0 -14  -2  184.18    8.20
   0 -14  -2  181.28    8.80
   0 -14   2  182.68   10.20
   0 -14   2  176.58   10.00
   0 -14   2  177.98   15.30
   2 -14   2  156.58   10.80
  -2 -14  -2  168.68    7.00
   2 -14   2  164.78   10.30
  -2 -14  -2  155.98   13.50
  -2 -14  -2  160.48    7.00
   2 -14   2  170.28   15.30
   4 -14   2  465.55   17.70
  -4 -14  -2  435.56   20.10
   4 -14   2  422.06   22.60
   4 -14   2  448.36   17.80
   6 -14   2   19.80    6.60
  -6 -14  -2   19.20    7.60
   6 -14   2   19.70    6.60
   6 -14   2   18.10    8.90
   8 -14   2   77.49   10.10
   8 -14   2  114.79   15.30
  -8 -14  -2   92.19   11.00
   7 -15  -2   19.40   11.40
   7 -15  -2    8.50    7.00
   7 -15  -2   22.10    7.50
  -7  15   2   13.00    9.80
   5 -15  -2  127.19   15.30
  -5 -15   2  129.49    7.70
   5 -15  -2  129.39   11.80
   5 -15  -2  123.89   11.70
  -5 -15   2  153.58   16.10
   3 -15  -2   21.60    5.70
  -3 -15   2   18.20    9.10
   3 -15  -2   22.60    5.60
  -3 -15   2   23.30    5.20
   3 -15  -2   10.10    8.70
  -1 -15   2  133.29    9.60
   1 -15  -2  114.39    8.90
   1 -15  -2  112.19    8.40
  -1 -15   2  143.89   15.80
   1 -15  -2  112.09   15.30
  -1 -15   2  123.09    9.50
  -1 -15  -2   75.19   11.20
   1 -15   2   80.49    9.70
   1 -15   2   92.69    9.50
   1 -15   2   76.79   11.90
  -1 -15  -2   86.49    6.90
  -3 -15  -2   43.60    9.50
   3 -15   2   26.00    6.20
   3 -15   2   39.10    7.00
   3 -15   2   22.50    9.70
   5 -15   2   -3.30    6.00
  -5 -15  -2   -3.30    8.00
   5 -15   2   -8.60    6.00
   5 -15   2  -14.20    8.70
   7 -15   2    4.00   10.90
   7 -15   2    2.30    7.00
   7 -15   2   15.90    7.50
  -7 -15  -2   11.90    9.50
  -4 -16   2   29.60   11.10
  -4 -16   2   29.00    5.20
   4 -16  -2   36.30   12.00
   4 -16  -2   15.50    6.50
   4 -16  -2   18.70    7.00
   2 -16  -2   74.29    7.90
  -2 -16   2   84.59   13.30
   2 -16  -2   75.49   13.40
  -2 -16   2   80.19    8.60
  -2 -16   2   85.39    9.90
   2 -16  -2   81.69    9.90
   0 -16  -2   19.10   11.00
   0 -16   2   36.90   11.70
   0 -16   2   31.60    6.80
   0 -16   2   30.10    6.80
   0 -16  -2   18.30    5.10
   2 -16   2  107.69   11.60
   2 -16   2   99.99   11.30
  -2 -16  -2  105.99   14.00
   2 -16   2   98.79   15.10
 -18   0   3   -4.00    7.30
  18   0  -3    3.50    8.40
 -18   0   3   -6.50    8.30
 -18   0   3    3.00    6.80
 -16   0   3   -1.90    5.70
 -16   0   3    6.40    5.40
  16   0  -3    5.00    5.90
 -16   0   3   -1.30    5.50
 -14   0   3   -5.20    4.20
  14   0  -3   -2.20    4.80
 -14   0   3   -2.10    1.70
 -14   0   3    1.60    3.90
 -12   0   3    5.40    3.30
  12   0  -3    3.70    3.10
 -12   0   3   -3.80    2.80
  12   0  -3    1.40    1.80
 -12   0   3    2.50    3.40
 -10   0   3   -0.80    2.10
  10   0  -3   -2.00    2.50
 -10   0   3    0.00    2.20
 -10   0   3    1.50    2.40
  10   0  -3    2.30    2.70
  10   0  -3    2.50    2.60
 -10   0   3    0.50    2.40
  10   0  -3    1.60    1.40
  -8   0   3    0.20    1.60
   8   0  -3   -0.90    1.40
   8   0  -3    1.30    1.80
  -8   0   3    0.90    1.60
   8   0  -3    0.50    1.00
  -8   0   3    1.60    1.70
   8   0  -3   -2.50    1.70
  -8   0   3    1.20    1.80
  -6   0   3    1.30    1.40
   6   0  -3    1.50    1.40
  -6   0   3    2.70    1.50
   6   0  -3    3.40    1.30
  -6   0   3    0.00    1.20
  -6   0   3    6.60    1.60
   6   0  -3   -0.40    1.30
  -4   0   3    1.40    0.90
   4   0  -3    0.20    0.90
  -4   0   3   -0.10    0.90
   4   0  -3    0.70    0.90
   2   0  -3    0.50    0.70
  -2   0   3    1.20    0.90
   2   0  -3    3.10    0.80
   2   0  -3    1.40    0.80
  -2   0   3    0.40    0.70
  -2   0   3    0.70    0.80
   0   0   3    1.40    0.70
   0   0  -3    0.30    0.70
   0   0   3    0.40    0.70
   0   0  -3    1.10    0.80
   0   0   3    1.60    0.80
   0   0  -3    0.50    0.70
   0   0  -3   -0.10    1.00
  -2   0  -3    1.00    0.70
   2   0   3    1.20    0.70
   2   0   3    1.30    0.80
   2   0   3    0.60    0.90
  -2   0  -3    3.30    1.40
  -2   0  -3    1.00    0.80
  -2   0  -3    3.50    0.90
  -4   0  -3    1.40    1.30
   4   0   3    0.20    0.90
   4   0   3    0.40    0.80
   4   0   3    4.20    1.10
  -4   0  -3    2.70    1.20
   4   0   3    0.70    1.20
  -4   0  -3    1.70    1.00
   4   0   3    0.40    1.10
   6   0   3   -0.20    1.40
  -6   0  -3    2.50    1.60
   6   0   3   -0.90    1.70
   6   0   3    3.50    0.90
  -6   0  -3    2.40    1.40
  -6   0  -3   -1.10    1.20
  -6   0  -3   -0.40    1.50
   6   0   3    1.30    1.10
   6   0   3    0.90    1.20
   6   0   3    1.60    1.50
   6   0   3   -0.30    1.40
  -6   0  -3    1.20    1.20
   8   0   3    0.50    1.90
   8   0   3   -1.30    2.00
   8   0   3    1.90    1.60
  -8   0  -3    0.30    1.70
  -8   0  -3    1.70    1.80
  -8   0  -3    1.70    2.30
   8   0   3    0.90    1.60
   8   0   3   -0.10    1.80
   8   0   3    2.00    2.10
   8   0   3   -0.90    1.90
  10   0   3   -2.30    2.40
 -10   0  -3   -1.70    2.20
 -10   0  -3    0.30    2.20
  10   0   3   -2.50    2.10
 -10   0  -3   -0.60    3.10
  10   0   3    2.70    2.90
  10   0   3    0.20    2.60
  10   0   3    3.60    3.00
  12   0   3    5.50    3.70
 -12   0  -3    2.90    2.80
  12   0   3    0.30    3.10
  12   0   3    2.70    3.50
 -12   0  -3   -2.90    3.00
  12   0   3    1.20    3.40
 -14   0  -3    1.00    3.80
 -14   0  -3   -3.50    3.50
  14   0   3    1.00    4.20
  14   0   3   -4.30    4.70
  14   0   3   -1.50    4.30
  16   0   3   -4.10    6.40
 -16   0  -3  -11.30    4.90
 -18   0  -3    0.30    7.30
 -19  -1   3  141.79   16.90
 -19  -1   3  158.88   17.60
 -19  -1   3  138.89   14.90
  19  -1  -3  148.29   17.80
 -19   1   3  131.99   15.80
 -19   1   3  109.49   12.80
  19   1  -3  142.69   18.60
 -19   1   3  140.19   17.50
  17  -1  -3  271.07   17.20
 -17  -1   3  284.37   17.10
 -17  -1   3  304.87   16.40
 -17  -1   3  303.47   15.70
 -17   1   3  305.27   17.50
 -17   1   3  279.37   16.60
  17   1  -3  294.77   17.80
 -17   1   3  271.27   18.10
 -15  -1   3   26.20    6.30
  15  -1  -3   26.40    3.80
 -15  -1   3   21.10    5.50
  15  -1  -3   19.10    6.20
 -15  -1   3   20.80    2.70
 -15  -1   3   23.20    5.60
  15   1  -3   27.50    7.00
 -15   1   3   25.10    6.90
 -15   1   3   26.70    5.80
 -13  -1   3   54.09    7.30
 -13  -1   3   62.79    6.50
  13  -1  -3   58.29    7.50
 -13  -1   3   50.99    6.70
 -13   1   3   52.39    7.20
  13   1  -3   59.79    7.40
 -13   1   3   49.00    6.30
 -13   1   3   38.30    5.80
 -13   1   3   49.10    3.40
 -11  -1   3  875.81   23.70
 -11  -1   3  891.81   24.20
  11  -1  -3  888.21   24.80
 -11  -1   3  858.81   24.40
 -11   1   3  881.41   25.10
 -11   1   3  903.51   24.80
 -11   1   3  831.82   23.90
  11   1  -3  857.61   24.80
  -9  -1   3   75.69    5.50
   9  -1  -3   81.59    5.70
   9  -1  -3   74.69    4.70
   9  -1  -3   77.59    5.60
  -9  -1   3   73.39    4.90
   9  -1  -3   74.29    4.10
  -9  -1   3   68.49    5.00
  -9  -1   3   76.69    5.30
   9   1  -3   66.89    5.20
  -9   1   3   67.09    5.50
  -9   1   3   72.09    5.70
   9   1  -3   78.49    3.30
   9   1  -3   73.49    2.80
  -9   1   3   81.39    5.70
   9   1  -3   79.49    5.80
   9   1  -3   72.89    5.20
   9   1  -3   68.69    4.20
  -9   1   3   77.79    5.10
   7  -1  -3   92.29    4.10
   7  -1  -3   94.89    4.60
  -7  -1   3   89.99    4.90
   7  -1  -3   86.79    5.10
  -7  -1   3   90.89    5.20
  -7  -1   3   99.79    4.60
   7  -1  -3   94.79    5.10
  -7  -1   3   96.29    5.10
  -7   1   3   88.29    5.40
   7   1  -3   92.09    4.80
   7   1  -3   93.59    3.80
  -7   1   3   92.19    5.10
  -7   1   3   81.19    4.50
   7   1  -3   86.49    4.10
   7   1  -3   96.89    5.10
  -7   1   3   86.99    5.20
   5  -1  -3  421.96   11.50
  -5  -1   3  391.06   11.70
  -5  -1   3  441.26   11.00
  -5  -1   3  400.16   11.40
   5  -1  -3  417.16   11.10
   5  -1  -3  390.26   11.60
  -5   1   3  442.36   11.10
   5   1  -3  422.76   10.70
   5   1  -3  430.16   11.80
  -5   1   3  376.76   13.00
   5   1  -3  417.26   11.40
  -5   1   3  405.86   11.60
   5   1  -3  430.66   10.80
  -5   1   3  424.86   12.00
   3  -1  -3   38.80    2.40
   3  -1  -3   50.19    2.80
  -3  -1   3   40.00    2.70
   3  -1  -3   38.60    2.60
  -3   1   3   43.60    2.70
  -3   1   3   40.60    2.80
   3   1  -3   41.70    2.70
   3   1  -3   42.40    2.30
   3   1  -3   42.10    2.80
  -1  -1   3 2168.98   47.30
  -1  -1   3 2277.27   47.10
   1  -1  -3 2197.98   46.90
   1  -1  -3 2152.28   47.10
  -1  -1   3 2199.68   47.50
  -1  -1   3 2152.78   47.70
   1  -1  -3 2172.98   47.30
   1   1  -3 2229.38   47.50
   1   1  -3 2219.88   47.30
  -1   1   3 2226.88   47.40
  -1   1   3 2267.57   46.80
  -1   1   3 2248.48   47.20
   1   1  -3 2220.88   47.80
   1  -1   3  511.55   13.30
  -1  -1  -3  497.15   12.20
  -1  -1  -3  493.65   11.70
   1  -1   3  502.05   12.00
  -1  -1  -3  496.55   12.00
   1  -1   3  529.95   12.60
   1   1   3  498.25   12.00
   1   1   3  489.65   11.50
  -1   1  -3  517.35   13.30
  -1   1  -3  479.35   12.30
  -1   1  -3  501.45   12.50
  -1   1  -3  506.35   12.10
  -3  -1  -3   77.79    3.30
  -3  -1  -3   78.39    3.20
   3  -1   3   77.59    3.60
   3  -1   3   82.59    3.60
   3  -1   3   80.69    3.80
  -3  -1  -3   79.29    4.30
   3  -1   3   80.99    4.40
   3   1   3   76.49    3.20
   3   1   3   77.09    3.20
   3   1   3   80.99    3.40
  -3   1  -3   81.09    3.50
  -3   1  -3   77.89    3.60
  -3   1  -3   81.09    3.80
  -5  -1  -3   95.39    4.80
  -5  -1  -3   90.39    3.90
   5  -1   3   94.59    5.20
   5  -1   3   92.69    4.60
   5  -1   3   84.99    4.50
   5  -1   3   86.19    4.20
   5  -1   3   87.19    4.30
  -5  -1  -3   83.69    3.90
  -5   1  -3   97.29    4.50
   5   1   3   88.79    3.30
   5   1   3   85.49    3.80
  -5   1  -3   87.99    4.30
   5   1   3   86.49    4.10
   5   1   3   85.59    4.10
  -5   1  -3   87.79    4.90
  -5   1  -3   88.19    4.60
  -5   1  -3   79.99    4.30
  -7  -1  -3 1241.48   29.00
  -7  -1  -3 1305.07   30.30
   7  -1   3 1196.98   30.10
  -7  -1  -3 1211.58   29.00
   7  -1   3 1240.18   29.90
   7  -1   3 1241.78   29.50
   7  -1   3 1247.68   29.70
   7  -1   3 1265.87   30.20
  -7  -1  -3 1235.78   29.30
   7  -1   3 1243.48   29.60
   7  -1   3 1231.48   29.60
  -7   1  -3 1227.08   29.80
  -7   1  -3 1267.57   29.80
  -7   1  -3 1282.47   29.50
   7   1   3 1252.27   29.20
   7   1   3 1260.37   28.90
  -7   1  -3 1281.67   30.00
   7   1   3 1248.28   29.10
   7   1   3 1269.47   28.70
   7   1   3 1234.18   26.80
   9  -1   3   41.80    4.80
  -9  -1  -3   55.79    5.80
  -9  -1  -3   43.80    4.20
   9  -1   3   45.30    4.60
   9  -1   3   45.00    5.00
  -9  -1  -3   45.60    4.10
   9  -1   3   45.50    4.70
   9  -1   3   48.40    5.30
   9  -1   3   50.99    5.60
   9  -1   3   47.00    5.10
  -9   1  -3   46.20    4.50
  -9   1  -3   49.10    4.60
   9   1   3   45.30    4.60
   9   1   3   43.40    4.00
   9   1   3   48.00    4.70
   9   1   3   44.20    4.70
  -9   1  -3   39.30    4.40
  11  -1   3   12.80    3.80
 -11  -1  -3   12.80    2.70
  11  -1   3   13.70    3.50
 -11  -1  -3   10.20    3.10
  11  -1   3    7.90    3.30
  11  -1   3   11.90    3.40
 -11   1  -3   14.40    3.20
 -11   1  -3   14.20    3.60
  11   1   3    5.00    3.70
  11   1   3    8.90    3.50
 -11   1  -3   10.20    5.60
 -13  -1  -3   91.19    7.60
 -13  -1  -3   91.99    6.30
  13  -1   3   99.19    8.80
  13  -1   3   88.89    8.50
  13  -1   3  111.19    9.00
  13  -1   3   99.09    8.60
  13   1   3   93.09    8.10
 -13   1  -3  108.69    7.40
 -13   1  -3  105.79    8.20
  15  -1   3  156.18   12.70
  15  -1   3  157.08   11.90
  15  -1   3  186.48   12.50
 -15  -1  -3  158.78   10.70
 -15   1  -3  170.88   11.50
  15   1   3  170.18   11.80
 -17  -1  -3  296.87   15.90
 -17   1  -3  280.77   16.20
  18  -2  -3  126.99   15.50
 -18  -2   3   99.29   12.60
 -18  -2   3  127.79   14.80
 -18  -2   3  117.89   12.20
  18   2  -3  122.19   14.50
 -18   2   3   89.79   11.50
 -18   2   3  125.69   16.90
 -18   2   3  127.39   15.70
 -16  -2   3   27.30    6.60
 -16  -2   3   21.80    6.50
 -16  -2   3   24.30    6.20
  16  -2  -3   33.00    7.50
 -16   2   3   24.90    7.20
 -16   2   3   34.80    8.40
 -16   2   3   15.00    6.30
  16   2  -3    9.80    6.90
 -14  -2   3  308.17   13.50
  14  -2  -3  319.67   14.60
 -14  -2   3  291.17   17.90
  14  -2  -3  316.17   11.50
 -14  -2   3  288.77   18.50
 -14   2   3  309.87   15.30
 -14   2   3  325.57   14.70
  14   2  -3  296.87   15.00
  12  -2  -3  771.32   20.50
 -12  -2   3  788.72   23.00
 -12  -2   3  775.82   22.50
 -12  -2   3  809.72   22.30
  12  -2  -3  802.52   23.50
 -12   2   3  767.72   19.30
 -12   2   3  772.32   24.10
 -12   2   3  762.22   23.10
  12   2  -3  811.92   23.90
 -12   2   3  795.62   23.70
  10  -2  -3    1.10    2.20
  10  -2  -3    4.40    2.60
 -10  -2   3    8.70    2.60
 -10  -2   3    0.40    2.10
  10  -2  -3    1.80    3.00
  10  -2  -3    3.00    2.10
  10  -2  -3    8.10    3.10
 -10  -2   3    6.00    2.70
 -10  -2   3    4.00    2.30
 -10   2   3    8.90    3.50
 -10   2   3    3.80    3.00
 -10   2   3    5.80    2.00
 -10   2   3   -0.80    2.20
  10   2  -3    4.20    3.00
  10   2  -3    0.80    4.60
  -8  -2   3  138.79    6.30
  -8  -2   3  150.28    6.10
  -8  -2   3  151.58    6.90
   8  -2  -3  145.69    7.10
  -8  -2   3  147.19    6.70
   8  -2  -3  139.39    6.30
   8  -2  -3  140.69    6.80
   8  -2  -3  148.09    6.30
   8   2  -3  155.48    6.60
  -8   2   3  148.19    7.20
  -8   2   3  135.39    7.30
   8   2  -3  149.88    7.30
  -8   2   3  152.28    5.80
   8   2  -3  150.58    5.50
   8   2  -3  143.99    6.60
  -8   2   3  153.08    6.40
  -8   2   3  152.98    7.40
  -6  -2   3   94.69    4.10
   6  -2  -3   92.19    5.00
  -6  -2   3   90.89    4.60
   6  -2  -3   86.49    4.50
  -6  -2   3   92.99    4.80
   6  -2  -3   86.89    4.40
   6  -2  -3   94.09    4.90
  -6   2   3   96.79    4.60
  -6   2   3   91.49    5.30
   6   2  -3   94.49    5.00
  -6   2   3   89.69    5.00
  -6   2   3   84.29    4.80
   6   2  -3   93.09    3.40
   6   2  -3   94.39    4.70
   6   2  -3   91.49    4.70
   6   2  -3   89.49    3.90
  -4  -2   3    8.00    1.60
   4  -2  -3    7.10    1.40
   4  -2  -3    5.50    1.30
  -4  -2   3    9.30    1.80
  -4  -2   3    7.30    1.30
  -4   2   3    3.90    1.20
   4   2  -3    7.10    1.10
  -4   2   3    6.70    1.60
   4   2  -3    8.50    1.50
   4   2  -3   10.40    1.50
  -4   2   3    6.30    1.40
  -4   2   3   11.50    1.60
   4   2  -3   11.60    1.90
  -2  -2   3 2110.59   45.30
   2  -2  -3 2088.29   45.10
  -2  -2   3 2127.29   44.70
  -2  -2   3 1993.30   45.20
   2  -2  -3 2084.49   44.50
  -2  -2   3 2131.39   45.30
   2  -2  -3 2070.09   44.80
   2   2  -3 2071.89   44.40
  -2   2   3 2097.99   44.90
  -2   2   3 2121.19   44.50
  -2   2   3 2165.38   45.30
   2   2  -3 2034.90   45.30
   2   2  -3 2092.69   45.10
  -2   2   3 2037.10   45.10
   0  -2  -3  358.56    9.20
   0  -2  -3  366.66    9.00
   0  -2   3  371.16    9.50
   0  -2  -3  360.16    9.40
   0  -2   3  369.66   10.40
   0  -2   3  350.16    9.70
   0   2  -3  371.36    9.60
   0   2  -3  359.56   10.20
   0   2  -3  355.96    9.70
   0   2   3  361.46    9.20
   0   2   3  355.76    8.60
   0   2   3  350.16    9.70
   0   2  -3  367.26    9.40
  -2  -2  -3  232.38    6.40
   2  -2   3  221.58    6.90
  -2  -2  -3  235.68    5.90
  -2  -2  -3  234.78    6.30
   2  -2   3  224.48    7.20
   2  -2   3  223.28    7.10
  -2   2  -3  226.58    7.10
   2   2   3  239.98    6.90
   2   2   3  230.88    6.40
  -2   2  -3  230.48    8.00
  -2   2  -3  234.68    7.10
  -4  -2  -3  599.94   14.30
   4  -2   3  591.74   16.30
   4  -2   3  598.54   15.60
  -4  -2  -3  603.94   14.10
   4  -2   3  613.64   15.50
  -4  -2  -3  508.75   16.50
   4   2   3  666.63   14.50
   4   2   3  593.74   14.30
  -4   2  -3  580.44   15.20
  -4   2  -3  618.34   15.60
   4   2   3  600.84   14.20
   4   2   3  613.24   14.40
  -4   2  -3  608.94   14.40
  -4   2  -3  593.94   16.10
  -6  -2  -3  172.98    6.00
   6  -2   3  183.48    7.80
   6  -2   3  190.08    7.60
   6  -2   3  167.38    7.00
  -6  -2  -3  186.88    7.50
  -6  -2  -3  175.58    6.90
   6  -2   3  169.38    7.20
   6  -2   3  178.68    7.00
   6  -2   3  167.98    6.90
   6   2   3  168.48    6.00
  -6   2  -3  173.58    6.40
   6   2   3  169.88    5.80
   6   2   3  178.08    5.50
  -6   2  -3  176.48    7.40
   6   2   3  173.88    6.10
   6   2   3  175.08    5.90
   6   2   3  170.78    5.80
  -6   2  -3  162.08    7.00
  -6   2  -3  169.68    7.00
  -6   2  -3  169.38    6.80
  -8  -2  -3   19.30    2.80
  -8  -2  -3   22.70    3.00
   8  -2   3   30.00    3.70
  -8  -2  -3   27.40    4.00
   8  -2   3   22.30    3.70
   8  -2   3   21.80    3.20
   8  -2   3   24.70    3.60
   8  -2   3   24.30    3.70
   8  -2   3   24.80    3.50
   8  -2   3   16.30    3.10
   8   2   3   21.70    2.90
  -8   2  -3   20.30    3.20
   8   2   3   24.40    3.00
  -8   2  -3   26.00    3.20
   8   2   3   24.60    3.00
   8   2   3   21.60    2.60
  -8   2  -3   16.50    2.80
   8   2   3   25.90    3.20
 -10  -2  -3  132.39    6.60
 -10  -2  -3  140.99    6.30
  10  -2   3  128.79    9.90
  10  -2   3  130.39    7.50
  10  -2   3  122.29    7.90
  10  -2   3  131.69    7.30
 -10   2  -3  136.59    7.40
  10   2   3  128.69    7.00
  10   2   3  137.19    6.60
  10   2   3  130.99    6.30
 -10   2  -3  129.09    7.70
 -10   2  -3  134.79    7.60
  10   2   3  143.09    7.30
 -12  -2  -3  287.37    9.70
  12  -2   3  298.67   12.70
  12  -2   3  298.97   12.40
  12  -2   3  293.37   12.30
 -12  -2  -3  283.37   11.20
  12  -2   3  283.27   12.70
  12   2   3  286.47   11.00
  12   2   3  265.77   11.70
  12   2   3  295.17   11.10
 -12   2  -3  296.87   11.60
 -12   2  -3  292.17   12.50
 -14  -2  -3  214.38   11.00
  14  -2   3  212.58   12.40
  14  -2   3  217.08   13.20
  14  -2   3  231.58   12.60
  14  -2   3  223.88   12.40
 -14   2  -3  200.98   10.70
 -14   2  -3  226.78   12.30
  14   2   3  239.28   11.70
 -16  -2  -3    8.80    5.70
  16  -2   3   14.00    7.10
  16  -2   3    5.90    7.40
  16  -2   3   -1.50    6.30
 -16   2  -3    3.70    5.80
 -18  -2  -3  249.38   16.10
 -18   2  -3  253.57   18.10
 -19  -3   3  172.08   14.70
 -19  -3   3  152.98   16.10
  19  -3  -3  159.78   18.40
  19  -3  -3  142.59   16.30
 -19  -3   3  210.28   17.70
 -19   3   3  162.28   18.70
 -19   3   3  150.88   15.70
 -19   3   3  183.38   22.90
  19   3  -3  180.68   19.10
 -17  -3   3  374.46   17.70
  17  -3  -3  382.86   19.70
 -17  -3   3  371.96   18.40
 -17  -3   3  375.26   17.20
 -17   3   3  413.56   21.60
 -17   3   3  371.86   19.70
 -17   3   3  366.66   19.00
  17   3  -3  334.27   19.90
 -15  -3   3  579.14   20.30
  15  -3  -3  524.25   20.40
 -15  -3   3  542.65   19.30
  15  -3  -3  551.64   18.00
 -15  -3   3  561.84   19.00
  15   3  -3  545.45   21.50
 -15   3   3  557.04   21.20
 -15   3   3  536.45   20.90
 -15   3   3  578.44   28.30
 -13  -3   3  216.48   10.40
  13  -3  -3  230.38   10.30
 -13  -3   3  231.18   11.20
 -13  -3   3  220.88   10.80
  13  -3  -3  233.28   11.90
 -13   3   3  222.58    7.80
  13   3  -3  239.38   12.60
 -13   3   3  227.08   12.20
 -13   3   3  225.48   12.00
 -13   3   3  227.68   12.90
 -11  -3   3  438.96   14.60
  11  -3  -3  450.45   14.10
  11  -3  -3  439.66   15.30
  11  -3  -3  421.56   15.70
 -11  -3   3  445.36   13.60
 -11  -3   3  441.46   14.20
 -11  -3   3  457.85   15.00
 -11   3   3  444.36   12.30
  11   3  -3  431.26   15.80
 -11   3   3  459.65   16.70
 -11   3   3  448.56   16.00
 -11   3   3  460.35   16.00
   9  -3  -3 1194.58   28.60
  -9  -3   3 1193.78   27.50
   9  -3  -3 1131.09   29.60
  -9  -3   3 1164.98   28.60
  -9  -3   3 1158.08   28.80
   9  -3  -3 1162.88   28.30
  -9  -3   3 1134.59   28.10
   9  -3  -3 1199.48   29.40
   9   3  -3 1147.39   28.10
  -9   3   3 1148.29   30.00
   9   3  -3 1108.89   28.40
   9   3  -3 1164.38   29.80
  -9   3   3 1146.29   28.20
  -9   3   3 1170.18   27.00
  -9   3   3 1193.88   29.80
  -9   3   3 1186.28   30.50
   7  -3  -3 1693.33   38.10
  -7  -3   3 1651.43   37.10
  -7  -3   3 1679.03   36.50
   7  -3  -3 1613.14   37.60
   7  -3  -3 1685.93   38.70
  -7  -3   3 1631.34   37.70
   7  -3  -3 1563.84   37.20
  -7   3   3 1681.03   39.00
   7   3  -3 1662.13   38.30
  -7   3   3 1666.73   38.30
   7   3  -3 1646.24   34.30
   7   3  -3 1632.14   37.50
  -7   3   3 1567.64   38.60
  -7   3   3 1652.73   36.70
   7   3  -3 1660.03   37.20
  -7   3   3 1645.84   37.10
   7   3  -3 1555.34   35.70
  -5  -3   3  370.96   10.60
   5  -3  -3  377.36   11.20
  -5  -3   3  393.86   10.10
   5  -3  -3  392.96   11.50
  -5  -3   3  369.06    9.80
   5  -3  -3  380.56   11.00
   5  -3  -3  372.46   10.60
  -5  -3   3  365.96   10.90
   5   3  -3  379.76   10.70
  -5   3   3  377.06   10.70
  -5   3   3  359.16   11.30
   5   3  -3  376.06    9.40
  -5   3   3  351.56   11.00
  -5   3   3  395.86   11.70
   5   3  -3  389.96    9.70
  -5   3   3  370.86   10.40
   5   3  -3  379.36   10.90
   5   3  -3  360.66   10.90
   3  -3  -3 1305.07   28.70
   3  -3  -3 1243.98   28.20
   3  -3  -3 1286.67   28.60
  -3  -3   3 1260.17   28.60
  -3  -3   3 1278.67   28.50
   3  -3  -3 1304.37   29.00
  -3  -3   3 1265.37   28.90
  -3   3   3 1258.07   28.10
   3   3  -3 1236.88   28.40
   3   3  -3 1233.98   28.50
   3   3  -3 1319.97   28.40
  -3   3   3 1222.48   28.90
  -3   3   3 1224.28   28.50
  -3   3   3 1265.07   28.80
   3   3  -3 1241.08   27.40
   1  -3  -3 3318.07   68.99
  -1  -3   3 3322.77   70.29
   1  -3  -3 3339.77   69.39
  -1  -3   3 3129.39   70.99
  -1  -3   3 3159.08   69.59
   1  -3  -3 3370.66   69.69
   1  -3  -3 3244.38   68.69
   1   3  -3 3164.88   68.99
   1   3  -3 3470.35   70.29
   1   3  -3 3270.57   69.59
   1   3  -3 3398.76   69.49
  -1   3   3 3162.58   69.99
  -1   3   3 3361.46   68.49
  -1   3   3 3329.77   69.09
   1  -3   3  523.95   12.90
  -1  -3  -3  523.95   11.80
  -1  -3  -3  536.15   12.30
  -1  -3  -3  549.35   13.30
   1  -3   3  483.85   13.20
   1  -3   3  511.95   14.40
  -1  -3  -3  527.75   12.50
  -1   3  -3  535.45   14.20
  -1   3  -3  520.75   13.20
  -1   3  -3  472.75   14.30
   1   3   3  528.45   12.30
  -3  -3  -3  172.78    5.70
  -3  -3  -3  166.98    4.90
   3  -3   3  159.98    6.10
   3  -3   3  175.88    6.50
   3  -3   3  172.38    6.50
   3  -3   3  157.08    6.90
  -3  -3  -3  166.68    4.70
  -3   3  -3  164.48    6.10
  -3   3  -3  166.88    4.70
  -3   3  -3  160.38    5.80
   3   3   3  170.98    4.90
  -3   3  -3  169.48    6.90
  -3   3  -3  166.98    6.40
   5  -3   3  474.35   13.80
  -5  -3  -3  505.95   13.90
  -5  -3  -3  454.45   13.00
   5  -3   3  454.25   14.30
   5  -3   3  461.15   13.30
  -5  -3  -3  483.25   11.80
   5  -3   3  492.15   14.20
  -5  -3  -3  490.35   11.70
  -5  -3  -3  476.25   14.00
  -5   3  -3  483.15   13.50
   5   3   3  484.25   11.60
  -5   3  -3  471.25   13.60
  -5   3  -3  502.65   14.40
   5   3   3  487.95   11.70
   5   3   3  456.45   13.20
   5   3   3  502.75   11.80
  -5   3  -3  452.15   13.70
  -5   3  -3  490.45   12.10
   5   3   3  494.45   11.70
  -7  -3  -3  774.22   20.70
   7  -3   3  765.12   18.90
   7  -3   3  767.32   20.10
   7  -3   3  743.73   20.70
   7  -3   3  737.13   20.30
  -7  -3  -3  674.23   19.00
  -7  -3  -3  737.03   19.40
   7  -3   3  778.92   20.50
   7  -3   3  739.23   20.80
  -7   3  -3  752.12   20.30
   7   3   3  761.62   18.00
  -7   3  -3  799.52   18.80
   7   3   3  742.03   17.90
  -7   3  -3  701.63   20.10
   7   3   3  758.62   17.80
   7   3   3  781.72   18.20
   9  -3   3 1697.93   40.30
  -9  -3  -3 1684.93   41.40
   9  -3   3 1711.63   41.20
  -9  -3  -3 1712.33   38.60
  -9  -3  -3 1689.93   38.20
   9  -3   3 1678.43   40.60
   9  -3   3 1737.33   41.30
   9  -3   3 1740.33   35.80
   9  -3   3 1552.14   40.10
   9  -3   3 1688.83   39.30
   9   3   3 1715.53   37.80
   9   3   3 1721.63   38.00
   9   3   3 1750.62   37.90
  -9   3  -3 1642.94   40.70
  -9   3  -3 1703.73   40.20
   9   3   3 1714.93   40.50
   9   3   3 1607.04   37.90
  11  -3   3  176.78   10.10
 -11  -3  -3  187.88    8.10
 -11  -3  -3  188.98    7.50
  11  -3   3  196.48   10.10
  11  -3   3  188.58    9.30
  11  -3   3  197.98    9.80
  11   3   3  189.28    7.90
 -11   3  -3  174.48    9.40
  11   3   3  194.68    8.70
 -11   3  -3  200.68   10.10
  11   3   3  181.38    7.80
  13  -3   3  531.25   18.80
 -13  -3  -3  510.95   13.80
 -13  -3  -3  505.05   16.10
  13  -3   3  520.05   18.20
  13  -3   3  483.95   18.20
  13  -3   3  497.45   17.50
 -13   3  -3  487.95   17.00
  13   3   3  521.05   15.90
  13   3   3  487.85   16.70
  13   3   3  504.45   15.70
 -13   3  -3  511.35   18.40
  15  -3   3 1210.68   33.90
  15  -3   3 1093.39   33.10
 -15  -3  -3 1198.38   31.30
  15  -3   3 1189.18   34.40
  15  -3   3 1128.29   33.50
 -15   3  -3 1175.58   34.10
 -17  -3  -3  324.87   15.70
  17  -3   3  321.87   19.00
 -17   3  -3  342.87   18.60
 -18  -4   3  181.08   15.00
 -18  -4   3  164.78   13.70
  18  -4  -3  143.29   16.70
  18  -4  -3  148.79   17.90
 -18  -4   3  179.78   14.50
 -18   4   3  155.98   17.80
 -18   4   3  167.08   17.60
 -18   4   3  166.38   21.50
  18   4  -3  180.18   18.60
 -16  -4   3   -0.20    5.20
  16  -4  -3    4.30    6.50
  16  -4  -3   -4.00    6.70
 -16  -4   3    1.30    4.70
 -16  -4   3   -0.60    4.90
  16  -4  -3   13.10    6.20
 -16   4   3    7.00    6.90
  16   4  -3    8.70    7.10
 -16   4   3    6.80    7.00
 -16   4   3   -0.80    7.10
  14  -4  -3  886.41   25.60
  14  -4  -3  893.21   27.70
 -14  -4   3  883.31   25.50
 -14  -4   3  874.61   26.10
 -14  -4   3  903.51   25.20
 -14   4   3  888.01   28.20
  14   4  -3  920.01   28.60
 -14   4   3  902.01   29.20
 -14   4   3  895.41   27.80
  12  -4  -3 1366.46   34.10
  12  -4  -3 1354.96   35.20
 -12  -4   3 1319.27   33.70
 -12  -4   3 1351.46   33.30
 -12  -4   3 1299.87   33.90
  12   4  -3 1344.97   36.10
 -12   4   3 1340.27   35.60
 -12   4   3 1383.86   37.10
 -12   4   3 1350.76   36.20
 -12   4   3 1342.67   31.10
  10  -4  -3 1297.57   32.30
 -10  -4   3 1299.57   32.50
 -10  -4   3 1323.17   32.20
 -10  -4   3 1326.97   31.80
  10  -4  -3 1391.66   35.10
 -10  -4   3 1362.46   31.20
  10  -4  -3 1258.97   33.90
  10  -4  -3 1324.37   32.90
 -10   4   3 1332.57   34.90
 -10   4   3 1341.97   34.10
 -10   4   3 1308.87   34.30
 -10   4   3 1320.57   30.80
  10   4  -3 1355.96   34.40
   8  -4  -3  177.18    8.00
  -8  -4   3  175.68    6.60
   8  -4  -3  197.08    8.60
  -8  -4   3  180.18    7.50
  -8  -4   3  177.98    7.10
   8  -4  -3  172.18    7.50
   8  -4  -3  178.08    8.10
  -8   4   3  184.68    8.70
  -8   4   3  187.38    8.50
   8   4  -3  174.48    7.30
  -8   4   3  166.38    8.60
  -8   4   3  186.08    7.00
   8   4  -3  173.68    7.50
   8   4  -3  172.28    8.30
  -8   4   3  183.48    7.70
  -6  -4   3 3258.57   70.69
  -6  -4   3 3431.06   70.09
   6  -4  -3 3411.76   71.79
   6  -4  -3 3248.48   72.59
   6  -4  -3 3316.17   71.09
  -6  -4   3 3120.59   71.09
   6  -4  -3 3280.27   72.19
  -6  -4   3 3291.57   69.49
  -6   4   3 3337.87   72.09
   6   4  -3 3255.47   69.09
  -6   4   3 3281.47   72.39
  -6   4   3 3316.07   71.09
  -6   4   3 3289.37   72.59
   6   4  -3 3340.87   71.79
  -6   4   3 3522.75   70.99
   6   4  -3 3265.97   68.59
   6   4  -3 3293.67   70.89
   6   4  -3 3263.77   70.79
  -4  -4   3 2560.74   53.89
   4  -4  -3 2528.75   55.39
   4  -4  -3 2509.65   55.09
   4  -4  -3 2550.84   55.89
   4  -4  -3 2581.84   54.89
  -4  -4   3 2477.35   54.89
  -4  -4   3 2506.85   54.39
   4  -4  -3 2496.95   54.49
  -4  -4   3 2469.15   54.49
   4   4  -3 2499.55   54.59
   4   4  -3 2619.74   54.49
   4   4  -3 2525.95   54.49
  -4   4   3 2498.95   55.49
  -4   4   3 2546.35   55.09
  -4   4   3 2492.65   54.99
  -4   4   3 2539.35   55.49
   4   4  -3 2563.84   54.19
   4   4  -3 2507.45   52.79
  -4   4   3 2567.24   54.09
   2  -4  -3 1631.74   34.70
  -2  -4   3 1531.95   34.10
   2  -4  -3 1501.15   34.10
  -2  -4   3 1600.04   33.90
   2  -4  -3 1540.65   33.90
  -2  -4   3 1418.86   36.10
  -2  -4   3 1491.65   34.20
  -2   4   3 1578.14   33.10
   2   4  -3 1545.65   33.30
  -2   4   3 1540.45   34.70
   2   4  -3 1525.65   33.00
  -2   4   3 1554.14   33.90
   2   4  -3 1564.84   34.10
   2   4  -3 1583.54   34.00
   2   4  -3 1409.96   35.60
  -2   4   3 1522.45   34.20
   0  -4  -3  389.56    9.60
   0  -4   3  375.46   10.60
   0  -4  -3  392.06   10.00
   0  -4  -3  398.26   11.00
   0  -4   3  370.46   10.70
   0  -4   3  389.16   11.80
   0  -4  -3  403.16    9.90
   0  -4   3  388.46   10.40
   0   4   3  375.36   11.00
   0   4  -3  411.26   10.70
   0   4  -3  395.86    8.80
   0   4   3  393.06    9.90
   0   4  -3  385.66   10.30
   0   4  -3  387.46   10.60
   0   4  -3  395.66   11.60
   2  -4   3 2989.20   65.39
  -2  -4  -3 3007.50   61.99
  -2  -4  -3 3030.10   63.79
  -2  -4  -3 2976.60   61.29
   2  -4   3 2952.30   64.19
   2  -4   3 3061.19   64.39
   2  -4   3 2839.52   63.79
   2  -4   3 2991.50   63.49
  -2  -4  -3 2929.11   62.19
   2   4   3 2965.90   61.69
  -2   4  -3 2979.80   63.39
   2   4   3 2911.01   61.79
  -2   4  -3 3105.19   65.29
  -2   4  -3 3013.30   64.19
   2   4   3 2907.51   63.99
  -2   4  -3 3016.00   63.89
   4  -4   3 2509.95   65.29
   4  -4   3 2863.81   62.79
   4  -4   3 2839.72   63.79
  -4  -4  -3 2916.71   59.59
   4  -4   3 2888.41   62.69
   4  -4   3 2849.61   62.39
  -4  -4  -3 3066.69   63.29
  -4  -4  -3 2948.91   61.59
  -4  -4  -3 2894.91   59.79
  -4   4  -3 2826.12   62.69
  -4   4  -3 2767.32   61.69
   4   4   3 2871.11   59.59
   4   4   3 2831.72   59.49
   4   4   3 2852.21   61.69
  -4   4  -3 2948.51   62.39
  -4   4  -3 3021.70   63.59
  -4   4  -3 2861.61   62.49
  -6  -4  -3  729.33   20.10
   6  -4   3  759.42   20.50
   6  -4   3  734.43   19.70
  -6  -4  -3  732.63   17.10
  -6  -4  -3  724.63   18.00
   6  -4   3  753.72   19.80
   6  -4   3  728.93   19.90
   6  -4   3  731.03   20.80
   6   4   3  712.83   16.50
   6   4   3  743.73   16.70
   6   4   3  751.02   16.50
  -6   4  -3  702.93   19.90
  -6   4  -3  748.33   20.40
   6   4   3  751.02   16.90
   6   4   3  734.13   16.70
  -6   4  -3  749.82   19.80
   8  -4   3   20.70    3.40
  -8  -4  -3   21.20    4.00
  -8  -4  -3   33.40    3.00
   8  -4   3   23.40    3.80
   8  -4   3   27.80    4.50
   8  -4   3   30.10    4.60
   8  -4   3   26.20    4.10
   8  -4   3   24.80    3.90
  -8  -4  -3   31.80    4.10
   8  -4   3   28.10    3.50
   8   4   3   30.30    3.10
  -8   4  -3   38.50    4.90
   8   4   3   27.70    2.70
   8   4   3   26.40    3.00
  -8   4  -3   30.60    4.30
 -10  -4  -3 1092.19   26.10
  10  -4   3 1096.99   23.70
  10  -4   3 1075.19   27.10
  10  -4   3 1091.39   28.60
  10  -4   3 1048.90   29.50
  10  -4   3 1096.69   29.00
 -10  -4  -3 1101.39   24.70
  10  -4   3 1077.59   29.50
  10   4   3 1071.99   25.70
 -10   4  -3 1067.99   28.50
 -10   4  -3 1041.50   28.90
  10   4   3 1040.00   25.30
 -12  -4  -3 2629.74   56.39
  12  -4   3 2509.85   61.49
  12  -4   3 2604.74   61.39
  12  -4   3 2635.04   59.69
  12  -4   3 2615.24   60.99
 -12  -4  -3 2554.04   57.59
 -12   4  -3 2509.05   61.39
  12   4   3 2685.33   57.09
  12   4   3 2557.54   57.79
  12   4   3 2640.54   57.19
  14  -4   3  188.18   13.20
 -14  -4  -3  188.28    9.70
  14  -4   3  204.58   12.80
  14  -4   3  201.48   11.80
  14  -4   3  176.58   13.20
 -14   4  -3  191.38   12.40
  16  -4   3   88.19   10.10
  16  -4   3  100.79   11.70
 -16   4  -3   76.79    9.70
  18  -4   3  493.75   25.50
 -18   4  -3  467.95   23.70
 -17  -5   3 1557.04   41.20
 -17  -5   3 1540.25   42.20
  17  -5  -3 1565.64   44.10
 -17  -5   3 1556.94   40.50
 -17   5   3 1602.24   45.50
 -17   5   3 1537.85   45.90
 -17   5   3 1536.15   47.70
  17   5  -3 1540.95   46.00
 -15  -5   3  715.13   22.10
 -15  -5   3  710.43   22.50
  15  -5  -3  726.43   24.70
 -15  -5   3  731.83   23.50
  15  -5  -3  733.03   24.20
 -15   5   3  701.43   25.60
  15   5  -3  761.82   26.70
 -15   5   3  734.93   27.40
 -15   5   3  727.33   26.20
 -13  -5   3   25.80    4.60
  13  -5  -3   18.20    5.30
 -13  -5   3   28.30    4.90
  13  -5  -3   37.20    6.10
 -13  -5   3   27.70    4.30
 -13   5   3   34.80    6.90
 -13   5   3   25.80    7.10
  11  -5  -3  253.97   11.60
 -11  -5   3  251.17   10.20
 -11  -5   3  268.57   10.00
 -11  -5   3  255.77    9.70
  11  -5  -3  249.28   12.20
 -11  -5   3  256.27   10.50
 -11   5   3  262.87   12.40
  11   5  -3  268.07   12.30
 -11   5   3  245.38   11.90
 -11   5   3  256.47   13.00
  -9  -5   3 1830.72   40.90
   9  -5  -3 1908.81   44.00
  -9  -5   3 1812.82   41.50
  -9  -5   3 1847.12   42.30
   9  -5  -3 1753.72   44.10
   9  -5  -3 1812.22   42.70
  -9  -5   3 1820.92   41.90
   9  -5  -3 1843.82   43.60
  -9   5   3 1802.22   44.50
   9   5  -3 1760.42   41.70
  -9   5   3 1821.52   41.60
  -9   5   3 1832.72   44.90
   9   5  -3 1912.41   44.30
  -9   5   3 1881.81   44.20
  -7  -5   3 4019.50   89.09
   7  -5  -3 4200.58   90.29
   7  -5  -3 4218.88   91.69
  -7  -5   3 4340.37   88.69
  -7  -5   3 4142.99   87.89
   7  -5  -3 4316.57   91.79
  -7  -5   3 4125.09   89.89
   7  -5  -3 4233.18   90.89
  -7   5   3 4530.95   89.99
  -7   5   3 3979.80   94.59
   7   5  -3 4317.57   89.49
  -7   5   3 4180.68   91.69
   7   5  -3 4306.77   91.19
   7   5  -3 4113.99   89.29
  -7   5   3 4159.68   89.89
   7   5  -3 4158.78   87.39
  -7   5   3 4216.98   91.29
  -5  -5   3  135.99    5.10
  -5  -5   3  131.89    5.40
   5  -5  -3  144.69    6.90
   5  -5  -3  129.59    6.00
  -5  -5   3  150.88    5.70
  -5  -5   3  140.49    6.00
   5  -5  -3  147.89    6.20
   5  -5  -3  125.89    5.70
   5  -5  -3  134.19    6.30
  -5   5   3  130.39    5.50
  -5   5   3  124.39    6.40
  -5   5   3  130.89    6.50
  -5   5   3  135.09    6.20
   5   5  -3  143.69    5.70
   5   5  -3  130.79    6.10
   5   5  -3  130.79    5.30
  -5   5   3  129.29    6.40
   5   5  -3  135.19    5.50
   3  -5  -3 1743.03   37.90
   3  -5  -3 1784.72   38.60
  -3  -5   3 1656.83   37.90
  -3  -5   3 1707.23   38.60
  -3  -5   3 1751.92   37.40
   3  -5  -3 1698.63   37.50
   3  -5  -3 1672.43   38.30
   3  -5  -3 1766.02   39.70
  -3  -5   3 1694.73   37.80
   3   5  -3 1674.13   35.80
  -3   5   3 1665.23   38.70
   3   5  -3 1742.63   38.30
   3   5  -3 1732.13   37.50
   3   5  -3 1719.73   37.50
  -3   5   3 1677.73   38.40
  -3   5   3 1691.63   38.00
  -3   5   3 1682.43   38.40
   3   5  -3 1717.43   37.50
  -3   5   3 1554.54   38.20
   1  -5  -3 3087.89   64.79
  -1  -5   3 2941.61   64.19
   1  -5  -3 2942.61   62.99
  -1  -5   3 2934.41   65.39
   1  -5  -3 3001.80   63.39
  -1  -5   3 2950.60   63.99
   1  -5  -3 2975.60   63.69
  -1  -5   3 3107.89   63.89
  -1   5   3 2937.61   61.59
  -1   5   3 2961.20   63.59
  -1   5   3 3046.20   63.39
   1   5  -3 2843.92   62.99
   1   5  -3 3087.39   65.29
  -1   5   3 2991.30   63.59
   1   5  -3 3060.69   64.09
  -1   5   3 3023.90   65.09
   1   5  -3 3032.30   63.89
   1   5  -3 3008.00   62.39
   1  -5   3 7555.94  167.98
  -1  -5  -3 8604.94  170.88
  -1  -5  -3 8254.27  166.48
  -1  -5  -3 7815.22  166.78
   1  -5   3 7913.01  166.88
   1  -5   3 7414.16  165.88
   1  -5   3 7403.76  166.28
   1  -5   3 8497.65  175.38
  -1  -5  -3 7595.94  164.68
  -1   5  -3 8372.66  173.68
   1   5   3 8912.61  168.68
  -1   5  -3 7786.12  167.78
  -1   5  -3 7914.21  166.38
   1   5   3 8696.93  168.78
   1   5   3 8773.62  170.08
  -1   5  -3 7558.34  166.38
   1   5   3 7334.17  166.78
  -3  -5  -3   69.39    2.60
  -3  -5  -3   68.69    2.30
   3  -5   3   66.59    4.30
   3  -5   3   69.89    4.70
   3  -5   3   56.59    4.20
  -3  -5  -3   72.09    4.20
   3  -5   3   64.79    5.00
   3  -5   3   66.69    4.60
   3   5   3   73.09    2.20
  -3   5  -3   74.59    4.10
   3   5   3   69.09    4.40
  -3   5  -3   74.39    4.50
  -3   5  -3   67.69    4.40
  -3   5  -3   79.49    5.20
   5  -5   3 2092.09   48.90
   5  -5   3 2085.79   47.20
  -5  -5  -3 2111.39   43.70
   5  -5   3 2051.79   47.60
   5  -5   3 1995.50   47.40
   5  -5   3 2069.69   48.20
  -5  -5  -3 2069.99   47.80
   5  -5   3 2114.49   47.50
  -5  -5  -3 2171.68   46.30
  -5   5  -3 2069.79   47.70
  -5   5  -3 2042.70   46.30
  -5   5  -3 2133.19   47.60
  -5   5  -3 2120.79   47.20
  -5   5  -3 2048.50   48.20
   7  -5   3 1664.93   40.60
   7  -5   3 1712.63   40.70
   7  -5   3 1720.43   41.30
  -7  -5  -3 1694.63   40.80
  -7  -5  -3 1718.53   38.10
   7  -5   3 1700.63   40.20
   7  -5   3 1666.63   41.60
   7  -5   3 1718.33   40.40
  -7   5  -3 1729.93   41.00
   7   5   3 1698.53   35.80
   7   5   3 1661.93   36.50
  -7   5  -3 1617.54   40.50
   9  -5   3 2231.38   49.70
   9  -5   3 2251.07   52.69
   9  -5   3 2238.78   53.29
   9  -5   3 2292.97   48.40
   9  -5   3 2257.47   53.69
   9  -5   3 2179.38   52.09
  -9  -5  -3 2255.97   50.29
  -9  -5  -3 2273.17   49.00
   9   5   3 2231.58   47.70
  -9   5  -3 2147.89   52.69
   9   5   3 2275.87   47.70
   9   5   3 2170.48   47.00
  -9   5  -3 2047.20   51.89
   9   5   3 2352.56   47.10
  11  -5   3   80.49    8.80
  11  -5   3   75.69    6.40
 -11  -5  -3   75.69    4.60
  11  -5   3   80.79    8.10
 -11  -5  -3   75.19    5.50
  11  -5   3   76.19    7.70
  11  -5   3   76.39    4.00
  11   5   3   75.59    5.00
  11   5   3   76.89    5.10
 -11   5  -3   72.59    7.70
  13  -5   3  863.81   26.20
  13  -5   3  831.02   26.90
  13  -5   3  850.51   26.80
  13  -5   3  827.92   24.20
 -13   5  -3  825.22   26.60
  15  -5   3 1277.27   35.20
  15  -5   3 1268.97   37.80
  15  -5   3 1251.57   40.90
  15  -5   3 1313.87   38.40
 -15   5  -3 1329.57   38.10
  17  -5   3  327.67   22.40
  17  -5   3  287.87   20.10
 -17   5  -3  306.37   19.40
  18  -6  -3  320.97   21.50
 -18  -6   3  330.67   17.90
 -18  -6   3  312.47   16.50
  18  -6  -3  328.37   23.20
 -18   6   3  319.27   26.00
 -18   6   3  361.26   22.70
  18   6  -3  322.27   23.90
 -16  -6   3   -2.10    5.30
 -16  -6   3    4.20    5.50
  16  -6  -3    9.20    7.20
  16  -6  -3    3.50    8.80
  16  -6  -3   -9.30    7.60
 -16  -6   3   16.40    6.00
  16   6  -3    2.00    8.60
 -16   6   3   13.90    9.30
 -16   6   3    6.00    7.80
 -16   6   3    5.70   10.10
 -14  -6   3 1461.75   37.40
 -14  -6   3 1483.45   36.70
 -14  -6   3 1440.16   36.00
  14  -6  -3 1496.95   39.50
 -14   6   3 1460.15   42.20
 -14   6   3 1440.56   41.00
  14   6  -3 1412.46   40.60
 -14   6   3 1445.06   40.40
  12  -6  -3  889.61   25.60
 -12  -6   3  878.51   27.50
  12  -6  -3  879.31   26.50
 -12  -6   3  850.51   23.60
 -12  -6   3  914.01   23.40
 -12   6   3  882.81   27.00
  12   6  -3  911.01   27.30
 -12   6   3  860.01   28.00
 -12   6   3  885.91   27.40
 -10  -6   3  158.98    7.10
  10  -6  -3  153.28    9.50
 -10  -6   3  160.58    7.40
 -10  -6   3  140.89    7.50
 -10  -6   3  149.88    7.10
  10  -6  -3  161.48    9.40
 -10   6   3  157.08   10.40
 -10   6   3  154.58    9.60
  10   6  -3  171.08    9.70
 -10   6   3  157.18    9.80
   8  -6  -3  103.89    7.50
   8  -6  -3  107.29    7.00
  -8  -6   3  114.99    4.50
   8  -6  -3  101.99    6.30
  -8  -6   3  102.99    5.80
   8  -6  -3  109.09    6.40
  -8  -6   3  112.79    5.60
   8  -6  -3  102.79    7.00
  -8  -6   3  110.49    5.30
  -8   6   3  113.89    8.30
  -8   6   3  102.09    7.30
   8   6  -3  104.79    6.10
  -8   6   3  108.59    6.30
  -8   6   3  110.29    6.90
   8   6  -3   94.49    7.00
  -8   6   3  114.99    7.60
   6  -6  -3  555.64   15.60
  -6  -6   3  571.54   14.30
  -6  -6   3  563.24   14.80
   6  -6  -3  538.95   15.90
  -6  -6   3  522.25   15.90
  -6  -6   3  563.24   15.40
   6  -6  -3  600.84   16.10
   6  -6  -3  598.24   16.90
   6  -6  -3  570.54   17.40
   6   6  -3  580.14   16.20
  -6   6   3  542.65   15.90
   6   6  -3  542.85   14.30
  -6   6   3  562.54   15.00
  -6   6   3  537.85   16.30
  -6   6   3  547.65   16.70
   6   6  -3  559.54   14.70
  -6   6   3  550.14   16.70
  -4  -6   3 1417.96   33.30
   4  -6  -3 1400.26   32.60
   4  -6  -3 1434.56   33.50
   4  -6  -3 1304.07   34.50
  -4  -6   3 1450.55   32.90
  -4  -6   3 1466.35   32.00
   4  -6  -3 1413.16   32.90
  -4  -6   3 1418.86   32.50
   4  -6  -3 1425.16   33.60
   4   6  -3 1456.55   32.10
   4   6  -3 1432.76   32.70
   4   6  -3 1443.56   32.00
  -4   6   3 1438.46   33.70
  -4   6   3 1456.65   33.80
   4   6  -3 1478.95   33.00
  -4   6   3 1452.95   31.80
  -4   6   3 1383.76   33.70
  -4   6   3 1416.06   33.20
   2  -6  -3  668.83   19.10
  -2  -6   3  702.23   17.40
   2  -6  -3  685.83   16.80
   2  -6  -3  691.83   17.50
   2  -6  -3  698.43   17.10
  -2  -6   3  672.53   17.50
  -2  -6   3  667.83   18.60
  -2  -6   3  722.33   17.20
   2  -6  -3  711.93   18.40
   2   6  -3  698.63   16.40
   2   6  -3  665.13   15.40
  -2   6   3  682.93   18.60
  -2   6   3  702.63   15.70
   2   6  -3  724.83   17.30
   2   6  -3  682.13   17.00
  -2   6   3  706.23   17.30
  -2   6   3  692.13   17.50
  -2   6   3  695.83   17.50
   2   6  -3  724.63   18.60
   0  -6   3  176.58    8.00
   0  -6   3  171.78    6.60
   0  -6  -3  183.38    5.90
   0  -6   3  172.68    6.70
   0  -6  -3  171.68    7.60
   0  -6   3  180.08    6.90
   0  -6   3  176.88    6.40
   0  -6  -3  184.88    7.40
   0  -6  -3  173.28    5.60
   0  -6  -3  177.88    5.40
   0   6   3  185.78    5.80
   0   6  -3  172.68    6.60
   0   6   3  169.58    7.30
   0   6  -3  177.48    6.60
   0   6  -3  187.78    7.90
   0   6   3  176.88    5.70
   2  -6   3 1965.70   43.90
   2  -6   3 1871.71   43.40
   2  -6   3 1930.61   45.50
  -2  -6  -3 1938.11   41.10
   2  -6   3 2006.40   44.10
  -2  -6  -3 2003.20   44.00
  -2  -6  -3 1933.61   40.80
  -2   6  -3 1926.31   43.60
  -2   6  -3 1891.51   42.70
   2   6   3 1934.11   40.40
  -2   6  -3 1942.61   43.40
  -2   6  -3 1963.00   45.10
   2   6   3 1903.91   40.50
   4  -6   3 4137.99   92.69
   4  -6   3 4245.18   92.79
  -4  -6  -3 4522.75   93.49
   4  -6   3 4202.08   92.39
   4  -6   3 4451.15   93.69
   4  -6   3 4305.47   94.59
  -4  -6  -3 4336.87   92.09
  -4   6  -3 4291.37   92.59
  -4   6  -3 4181.68   91.39
  -4   6  -3 4336.77   93.89
  -4   6  -3 4353.96   92.39
   6  -6   3  109.89    7.10
   6  -6   3  136.79    8.40
   6  -6   3  118.39    7.10
  -6  -6  -3  129.59    6.20
   6  -6   3  126.19    7.10
   6  -6   3  137.39    7.10
  -6  -6  -3  137.59    8.00
   6  -6   3  130.79    7.80
  -6   6  -3  131.59    6.50
  -6   6  -3  115.09    7.20
  -6   6  -3  131.69    8.30
  -8  -6  -3  677.03   17.60
   8  -6   3  624.94   19.60
   8  -6   3  652.83   20.50
   8  -6   3  676.73   19.80
   8  -6   3  652.23   20.10
   8  -6   3  667.83   16.70
   8  -6   3  660.43   21.10
  -8   6  -3  617.64   19.90
  -8   6  -3  649.83   18.50
  10  -6   3  539.65   19.40
  10  -6   3  559.14   18.50
  10  -6   3  540.35   15.50
 -10  -6  -3  530.35   15.90
  10  -6   3  545.05   19.70
 -10  -6  -3  557.54   15.20
  10  -6   3  522.95   18.50
  10  -6   3  549.95   14.60
 -10   6  -3  533.15   18.60
  10   6   3  531.05   13.10
  10   6   3  539.65   13.00
  12  -6   3  459.75   18.30
 -12  -6  -3  463.95   13.20
 -12  -6  -3  438.16   12.90
  12  -6   3  468.35   15.40
  12  -6   3  435.16   17.70
  12  -6   3  449.36   18.90
  14  -6   3  230.28   14.70
  14  -6   3  229.08   12.30
  14  -6   3  241.78   16.00
  14  -6   3  216.78   15.60
 -14   6  -3  232.88   14.70
  16  -6   3   23.50    8.60
  16  -6   3    6.30   10.10
 -16   6  -3   18.20    8.30
  17  -7  -3  711.73   27.50
 -17  -7   3  690.23   22.70
  17  -7  -3  725.33   31.70
  17  -7  -3  724.73   30.40
 -17  -7   3  709.43   24.20
 -17   7   3  719.93   32.60
 -17   7   3  745.43   29.90
  17   7  -3  733.93   30.50
 -15  -7   3  626.24   20.50
  15  -7  -3  594.64   22.60
 -15  -7   3  626.74   19.10
  15  -7  -3  560.14   32.60
 -15  -7   3  603.44   19.50
 -15   7   3  603.04   24.90
 -15   7   3  600.44   27.00
  15   7  -3  571.84   24.80
 -15   7   3  608.14   25.20
 -13  -7   3    8.90    4.10
  13  -7  -3    4.40    5.60
 -13  -7   3    6.50    3.70
  13  -7  -3   12.50    5.30
 -13  -7   3    7.70    3.90
 -13   7   3    9.30    6.40
 -13   7   3   10.60    7.00
 -13   7   3    6.10    6.90
  13   7  -3    6.40    5.70
  11  -7  -3  169.18   10.90
 -11  -7   3  175.88    8.40
 -11  -7   3  164.18    7.70
  11  -7  -3  167.88   11.20
 -11  -7   3  167.08    8.00
 -11  -7   3  164.38    8.10
 -11   7   3  163.08   11.30
  11   7  -3  178.08   11.30
 -11   7   3  172.48   12.30
 -11   7   3  175.88   11.20
   9  -7  -3 1808.52   43.80
  -9  -7   3 1809.92   41.00
  -9  -7   3 1846.92   40.60
   9  -7  -3 1822.52   44.70
   9  -7  -3 1784.82   42.80
   9  -7  -3 1810.42   42.30
   9  -7  -3 1761.72   44.90
  -9  -7   3 1801.92   41.50
  -9  -7   3 1792.42   40.60
  -9  -7   3 1821.52   38.90
  -9   7   3 1867.01   44.60
   9   7  -3 1757.42   44.00
  -9   7   3 1813.72   44.80
  -9   7   3 1729.63   45.00
   7  -7  -3  983.10   26.60
   7  -7  -3 1018.10   25.60
  -7  -7   3  992.00   23.70
   7  -7  -3  994.30   25.40
  -7  -7   3  922.21   24.80
  -7  -7   3  995.30   24.50
   7  -7  -3 1001.10   27.60
  -7  -7   3 1030.50   23.50
   7  -7  -3 1025.40   26.00
   7   7  -3  959.90   23.50
  -7   7   3  946.91   26.50
   7   7  -3 1037.40   23.50
  -7   7   3 1003.50   24.50
  -7   7   3  947.21   26.10
  -7   7   3  993.50   27.00
   7   7  -3  987.30   25.90
  -5  -7   3  341.57   11.10
   5  -7  -3  329.87   11.60
  -5  -7   3  339.47   10.70
   5  -7  -3  324.47   11.40
  -5  -7   3  343.47   10.30
   5  -7  -3  323.57   10.70
  -5  -7   3  334.27    9.80
   5  -7  -3  345.97   11.20
   5  -7  -3  320.07   12.50
   5   7  -3  335.37    9.60
  -5   7   3  331.37   12.40
  -5   7   3  330.67   11.70
   5   7  -3  335.57    9.90
  -5   7   3  330.87   10.00
   5   7  -3  351.46   10.80
  -5   7   3  333.77   11.60
   5   7  -3  320.97   10.80
   3  -7  -3  942.81   22.80
  -3  -7   3  950.90   23.00
   3  -7  -3  924.91   25.60
   3  -7  -3  971.70   24.40
   3  -7  -3  962.30   23.20
  -3  -7   3  963.10   22.70
  -3  -7   3  955.40   23.20
   3  -7  -3  966.00   23.70
  -3  -7   3  946.11   24.50
  -3   7   3  974.30   23.50
   3   7  -3  956.20   22.50
   3   7  -3  960.50   24.10
   3   7  -3  972.90   22.50
  -3   7   3  980.20   21.50
  -3   7   3  941.91   23.70
   3   7  -3  897.01   23.20
   1  -7  -3 2347.57   51.29
  -1  -7   3 2241.28   49.70
  -1  -7   3 2233.28   49.99
  -1  -7   3 2308.37   50.09
   1  -7  -3 2256.97   49.30
   1  -7  -3 2205.48   48.50
   1  -7  -3 2267.77   52.09
  -1  -7   3 2312.97   49.40
   1  -7  -3 2254.87   48.80
  -1  -7   3 2197.08   51.79
  -1   7   3 2234.88   49.10
   1   7  -3 2265.27   49.40
   1   7  -3 2280.27   51.39
  -1   7   3 2219.08   48.90
   1   7  -3 2303.87   47.40
   1   7  -3 2242.58   47.50
   1   7  -3 2243.48   49.40
  -1  -7  -3 1628.44   35.30
  -1  -7  -3 1606.14   34.60
  -1  -7  -3 1629.94   38.80
   1  -7   3 1611.44   37.10
  -1  -7  -3 1682.33   38.20
   1  -7   3 1644.84   37.50
  -1  -7  -3 1613.34   34.90
   1  -7   3 1659.53   39.70
   1  -7   3 1659.23   36.80
   1  -7   3 1572.94   37.40
  -1   7  -3 1596.84   37.00
  -1   7  -3 1592.04   38.80
  -1   7  -3 1590.74   36.00
  -1   7  -3 1609.24   37.20
   1   7   3 1602.64   34.90
  -1   7  -3 1663.83   35.50
   1   7   3 1604.04   34.70
   3  -7   3  194.58    9.80
   3  -7   3  215.18    8.60
   3  -7   3  213.18    8.30
  -3  -7  -3  194.98    8.50
   3  -7   3  196.18    8.40
  -3  -7  -3  206.78    8.50
   3  -7   3  210.18    8.90
  -3   7  -3  217.18    7.40
  -3   7  -3  189.98    8.20
  -3   7  -3  200.78    9.60
  -3   7  -3  208.08    7.60
  -3   7  -3  214.28    8.40
  -5  -7  -3  561.84   16.20
   5  -7   3  519.65   18.10
   5  -7   3  554.04   16.50
   5  -7   3  576.64   16.80
  -5  -7  -3  552.94   16.10
   5  -7   3  552.44   17.30
   5  -7   3  565.54   16.90
   5  -7   3  515.85   16.70
  -5  -7  -3  564.54   17.40
  -5   7  -3  565.84   17.10
  -5   7  -3  559.14   15.60
  -5   7  -3  554.74   15.40
  -5   7  -3  565.14   18.10
   7  -7   3 1917.01   45.70
   7  -7   3 1858.61   47.10
  -7  -7  -3 1887.31   43.30
   7  -7   3 1879.31   45.20
   7  -7   3 1823.32   44.90
  -7  -7  -3 1915.61   43.60
   7  -7   3 1899.41   46.10
  -7   7  -3 1892.21   45.80
  -7   7  -3 1905.91   43.90
  -9  -7  -3 1106.29   27.80
   9  -7   3 1153.48   27.60
   9  -7   3 1106.09   31.40
   9  -7   3 1091.79   26.40
  -9  -7  -3 1143.69   28.90
  -9  -7  -3 1098.79   27.30
   9  -7   3 1105.79   30.90
   9  -7   3 1116.19   32.30
   9  -7   3 1148.89   30.60
  -9   7  -3 1133.59   29.00
  -9   7  -3 1138.29   31.20
  11  -7   3   33.20    7.30
 -11  -7  -3   38.50    4.90
  11  -7   3   34.90    4.70
 -11  -7  -3   35.00    4.60
  11  -7   3   41.60    6.60
 -11  -7  -3   40.90    5.60
  11  -7   3   45.10    5.00
  11  -7   3   28.80    5.80
 -11   7  -3   42.60    7.10
  13  -7   3  243.18   15.40
  13  -7   3  209.78   20.70
  13  -7   3  249.38   14.40
  13  -7   3  232.58   11.40
 -13   7  -3  249.38   14.60
  15  -7   3  761.42   29.20
  15  -7   3  742.23   28.50
  15  -7   3  739.43   27.40
 -15   7  -3  733.43   28.00
  17  -7   3  551.04   29.60
  17  -7   3  596.74   27.30
 -17   7  -3  595.04   27.00
  16  -8  -3   -6.70   10.20
  16  -8  -3   10.20   10.70
  16  -8  -3    0.30    7.70
  16  -8  -3    6.10    9.40
 -16  -8   3    8.90    6.10
 -16  -8   3   11.30    5.60
  16   8  -3   14.80   10.00
 -16   8   3    2.90    8.90
 -16   8   3   24.00   10.30
  14  -8  -3   37.00    8.20
 -14  -8   3   38.00    5.80
  14  -8  -3   27.60    7.20
  14  -8  -3   33.60    8.60
  14  -8  -3   55.79    9.40
 -14  -8   3   26.70    4.70
  14   8  -3   37.80    8.70
 -14   8   3   27.40    8.70
 -14   8   3   33.00    8.80
 -14   8   3   28.50    9.20
  12  -8  -3 1237.48   35.20
 -12  -8   3 1191.18   30.20
  12  -8  -3 1164.28   32.20
 -12  -8   3 1182.88   29.00
 -12  -8   3 1187.88   29.20
 -12   8   3 1172.88   36.10
 -12   8   3 1191.68   35.10
 -12   8   3 1208.68   34.80
  12   8  -3 1194.88   34.40
  10  -8  -3  279.77   13.50
  10  -8  -3  284.47   14.20
 -10  -8   3  284.87   10.00
 -10  -8   3  289.87   10.40
 -10  -8   3  267.07   10.00
 -10  -8   3  277.47    9.50
 -10   8   3  281.37   13.80
  10   8  -3  272.57   13.30
 -10   8   3  294.97   14.00
 -10   8   3  278.57   14.50
   8  -8  -3  583.74   20.20
   8  -8  -3  585.94   19.10
  -8  -8   3  588.24   15.50
   8  -8  -3  586.74   18.40
   8  -8  -3  615.14   18.00
  -8  -8   3  598.14   15.90
  -8  -8   3  598.24   16.20
  -8  -8   3  610.34   16.50
  -8   8   3  602.04   19.50
  -8   8   3  604.04   19.30
  -8   8   3  566.44   17.10
   8   8  -3  563.94   16.80
   8   8  -3  600.04   18.80
   6  -8  -3  510.35   16.30
   6  -8  -3  523.25   15.50
  -6  -8   3  504.45   13.90
  -6  -8   3  530.45   15.50
   6  -8  -3  510.35   15.70
  -6  -8   3  518.15   14.80
   6  -8  -3  507.25   16.40
  -6  -8   3  529.65   14.00
   6  -8  -3  516.45   17.80
  -6   8   3  497.45   16.60
   6   8  -3  510.85   15.70
  -6   8   3  508.55   14.40
   6   8  -3  506.85   13.70
  -6   8   3  515.25   16.30
  -6   8   3  516.15   16.60
   6   8  -3  530.45   14.90
  -4  -8   3  358.36   10.80
   4  -8  -3  326.57   10.70
  -4  -8   3  332.17   10.80
  -4  -8   3  338.47   12.10
   4  -8  -3  340.57   11.60
   4  -8  -3  339.07   11.30
   4  -8  -3  339.57   12.20
   4  -8  -3  355.66   13.60
  -4   8   3  335.97   11.40
  -4   8   3  340.77   11.80
   4   8  -3  356.96   11.90
  -4   8   3  340.87    9.60
   4   8  -3  334.67   10.10
   4   8  -3  343.27    9.90
   2  -8  -3   93.49    4.70
   2  -8  -3   86.79    4.60
   2  -8  -3   71.89    6.30
   2  -8  -3   74.19    6.20
  -2  -8   3   85.39    5.00
   2  -8  -3   82.99    4.70
  -2  -8   3   92.19    5.10
  -2  -8   3   90.49    5.00
  -2  -8   3   78.29    6.30
  -2  -8   3   89.59    4.80
   2   8  -3   77.39    4.80
  -2   8   3   83.89    5.00
  -2   8   3   86.49    5.20
   2   8  -3   85.09    6.50
   2   8  -3   77.29    5.00
   0  -8   3  142.89    6.60
   0  -8   3  142.19    6.50
   0  -8  -3  148.19    8.00
   0  -8   3  146.19    6.80
   0  -8  -3  149.79    5.30
   0  -8  -3  154.48    5.70
   0  -8  -3  141.59    6.40
   0  -8   3  140.09    8.20
   0  -8  -3  140.29    7.80
   0  -8   3  160.08    6.50
   0   8  -3  142.49    8.20
   0   8  -3  139.09    6.70
   0   8  -3  154.88    6.70
   0   8  -3  148.89    4.90
   0   8   3  150.18    5.60
   0   8  -3  139.09    6.60
   0   8   3  149.39    5.60
  -2  -8  -3   26.10    3.90
   2  -8   3   31.80    4.20
  -2  -8  -3   32.10    2.00
   2  -8   3   36.90    4.10
   2  -8   3   30.20    4.80
   2  -8   3   28.90    3.70
  -2  -8  -3   30.00    2.00
  -2  -8  -3   31.90    2.50
  -2  -8  -3   30.50    2.10
  -2  -8  -3   39.30    4.90
   2  -8   3   40.40    4.30
  -2   8  -3   35.00    3.70
  -2   8  -3   30.10    3.40
  -2   8  -3   30.70    3.80
  -2   8  -3   28.90    3.70
  -2   8  -3   35.60    4.90
   4  -8   3  357.06   12.40
   4  -8   3  340.97   12.60
   4  -8   3  349.07   12.50
   4  -8   3  346.87   14.30
  -4  -8  -3  345.27   12.30
  -4  -8  -3  356.46   13.10
   4  -8   3  357.86   13.00
  -4  -8  -3  347.27   12.50
   4  -8   3  365.06   12.50
  -4   8  -3  352.46   11.30
  -4   8  -3  356.96   11.00
   6  -8   3 1295.67   35.30
  -6  -8  -3 1269.17   31.80
   6  -8   3 1292.37   33.20
  -6  -8  -3 1262.77   32.00
   6  -8   3 1300.27   32.80
   6  -8   3 1306.67   32.90
   6  -8   3 1348.57   34.20
  -6   8  -3 1277.47   31.40
  -6   8  -3 1233.58   30.90
  -6   8  -3 1306.67   33.50
  -8  -8  -3   32.80    4.20
   8  -8   3   36.90    5.30
   8  -8   3   25.90    4.70
   8  -8   3   30.40    6.10
   8  -8   3   25.50    4.90
  -8  -8  -3   38.70    6.40
   8  -8   3   25.90    5.10
  -8   8  -3   26.50    5.60
  -8   8  -3   24.00    4.50
  10  -8   3  695.63   23.20
  10  -8   3  707.03   22.60
 -10  -8  -3  699.63   18.90
  10  -8   3  697.63   24.60
 -10  -8  -3  686.23   20.40
  10  -8   3  634.94   24.50
  10  -8   3  698.83   19.60
 -10   8  -3  682.03   20.90
 -10   8  -3  718.33   23.40
 -12  -8  -3  136.69    7.30
  12  -8   3  161.78   12.60
  12  -8   3  153.38   13.90
  12  -8   3  156.18   12.90
 -12   8  -3  141.59   10.60
 -12   8  -3  152.58   12.40
  14  -8   3  384.56   22.00
  14  -8   3  379.96   19.60
 -14   8  -3  361.66   19.60
 -14   8  -3  376.36   17.40
  16  -8   3   10.10    9.60
  16  -8   3   -6.10   11.20
 -16   8  -3   14.00    9.80
 -16   8  -3    1.00    7.90
  15  -9  -3    1.90   10.30
 -15  -9   3   21.30    5.70
  15  -9  -3    3.20    8.80
  15  -9  -3    0.00    9.50
  15  -9  -3    8.70    7.60
 -15  -9   3    6.90    4.80
  15   9  -3   25.90   10.00
 -15   9   3    2.90    8.80
  13  -9  -3  236.18   16.70
  13  -9  -3  240.18   16.60
 -13  -9   3  211.58   11.00
 -13  -9   3  245.28   10.90
  13  -9  -3  261.07   14.10
  13  -9  -3  244.48   15.90
 -13   9   3  237.58   16.30
  13   9  -3  232.58   16.50
 -13   9   3  234.78   18.10
 -11  -9   3   11.40    3.50
  11  -9  -3   15.30    6.40
  11  -9  -3   17.40    6.00
 -11  -9   3   14.90    3.20
 -11  -9   3   15.00    3.60
  11   9  -3    6.70    6.20
 -11   9   3   13.10    6.50
 -11   9   3   16.60    7.50
 -11   9   3   10.30    6.00
   9  -9  -3  365.16   16.40
  -9  -9   3  364.86   10.90
  -9  -9   3  361.56   11.10
   9  -9  -3  372.26   15.40
  -9  -9   3  356.06   11.70
  -9  -9   3  367.96   11.90
  -9  -9   3  350.16   11.90
   9  -9  -3  329.27   14.70
  -9   9   3  368.76   15.70
  -9   9   3  386.36   15.70
   9   9  -3  351.76   14.90
  -9   9   3  367.16   16.60
  -7  -9   3  595.64   17.60
  -7  -9   3  591.44   16.50
   7  -9  -3  606.74   18.50
  -7  -9   3  597.64   16.10
   7  -9  -3  609.24   18.10
  -7  -9   3  596.04   15.60
   7  -9  -3  594.64   21.00
   7   9  -3  637.24   17.10
  -7   9   3  589.94   19.30
   7   9  -3  590.54   18.40
  -7   9   3  587.24   19.10
  -7   9   3  590.64   19.60
  -7   9   3  577.34   16.80
  -5  -9   3   78.79    5.30
  -5  -9   3   75.49    4.80
   5  -9  -3   62.89    7.40
   5  -9  -3   72.29    5.80
  -5  -9   3   71.39    5.00
   5  -9  -3   67.09    5.80
   5  -9  -3   70.99    5.60
  -5  -9   3   72.79    5.10
  -5  -9   3   65.19    6.20
   5   9  -3   85.79    6.90
  -5   9   3   69.39    6.40
  -5   9   3   77.09    4.80
  -5   9   3   79.59    7.10
   5   9  -3   70.79    5.20
  -5   9   3   82.19    5.00
  -3  -9   3  656.83   17.00
   3  -9  -3  639.44   17.30
   3  -9  -3  641.74   17.10
  -3  -9   3  634.54   17.00
   3  -9  -3  633.34   17.80
   3  -9  -3  647.14   20.60
  -3  -9   3  628.94   17.30
  -3  -9   3  632.84   19.50
  -3  -9   3  642.34   16.80
  -3   9   3  655.73   18.20
  -3   9   3  656.43   18.00
   3   9  -3  628.24   19.00
   3   9  -3  601.84   16.50
  -3   9   3  630.94   17.60
  -1  -9   3  785.82   23.20
   1  -9  -3  776.42   19.10
  -1  -9   3  793.82   20.30
   1  -9  -3  795.12   19.30
  -1  -9   3  807.92   20.50
  -1  -9   3  759.62   19.70
   1  -9  -3  812.32   19.90
  -1  -9   3  794.72   20.60
   1  -9  -3  785.92   19.40
   1  -9  -3  788.22   23.30
  -1   9   3  772.52   19.60
   1   9  -3  736.43   19.90
   1   9  -3  742.53   22.40
   1  -9   3  131.29    6.70
  -1  -9  -3  117.39    4.60
   1  -9   3  116.99    6.60
  -1  -9  -3  126.99    4.60
   1  -9   3  141.39    7.20
  -1  -9  -3  134.09    8.20
   1  -9   3  129.39    7.10
   1  -9   3  123.89    8.80
   1   9   3  125.59    4.70
   3  -9   3   11.10    4.20
  -3  -9  -3   10.50    4.00
  -3  -9  -3   13.40    3.40
   3  -9   3   15.60    3.40
   3  -9   3   12.50    3.10
   3  -9   3   11.20    3.40
   3  -9   3   26.10    4.00
   3  -9   3   10.50    3.00
  -3  -9  -3   11.20    1.40
  -3   9  -3   12.00    2.90
  -3   9  -3   12.90    2.90
   5  -9   3  296.37   12.00
   5  -9   3  302.77   12.30
   5  -9   3  324.27   12.30
  -5  -9  -3  306.87   12.20
   5  -9   3  317.17   13.10
   5  -9   3  313.67   14.50
  -5   9  -3  292.27   10.80
  -5   9  -3  308.37   10.90
   7  -9   3  591.34   20.30
  -7  -9  -3  574.54   17.70
   7  -9   3  571.04   18.80
   7  -9   3  536.05   18.80
   7  -9   3  577.54   19.20
   7  -9   3  584.84   21.40
  -7   9  -3  590.24   19.60
  -7   9  -3  580.44   17.40
   9  -9   3  484.15   19.30
   9  -9   3  493.15   18.80
   9  -9   3  459.45   18.10
  -9  -9  -3  497.45   15.80
  -9   9  -3  489.45   18.80
  -9   9  -3  510.15   16.80
 -11  -9  -3   58.49    6.60
  11  -9   3   50.59    9.40
  11  -9   3   49.60    7.90
  11  -9   3   61.29    8.10
 -11   9  -3   46.30    7.70
 -11   9  -3   55.29    7.30
  13  -9   3  129.59   16.10
  13  -9   3  128.59   13.50
  13  -9   3  137.29   14.90
 -13   9  -3  123.59   14.10
 -13   9  -3  118.29   12.10
  15  -9   3  481.55   25.90
  15  -9   3  497.85   27.60
  15  -9   3  515.95   24.20
 -15   9  -3  522.05   22.00
 -15   9  -3  492.25   24.50
  14 -10  -3   55.29   10.40
  14 -10  -3   50.99   11.40
 -14 -10   3   48.30    6.20
 -14 -10   3   44.40    4.90
  14 -10  -3   64.59    9.30
  14 -10  -3   58.29   11.50
 -14  10   3   33.00   11.00
  12 -10  -3   14.30    6.00
  12 -10  -3   11.40    7.90
  12 -10  -3    7.70    6.70
  12 -10  -3    8.10    7.30
 -12 -10   3   14.10    3.30
 -12 -10   3   20.20    4.40
 -12  10   3   15.90    7.60
 -10 -10   3   23.60    4.50
  10 -10  -3   25.90    5.90
  10 -10  -3   23.80    7.10
 -10 -10   3   27.60    6.10
 -10 -10   3   22.90    3.70
  10 -10  -3   19.50    6.10
 -10 -10   3   22.40    3.30
 -10  10   3   21.00    6.60
 -10  10   3   16.50    6.80
   8 -10  -3   -5.50    5.50
   8 -10  -3    0.00    4.80
   8 -10  -3    1.40    5.00
  -8 -10   3   -2.10    2.10
   8 -10  -3    7.90    4.50
  -8 -10   3    0.40    3.70
   8 -10  -3    3.80    4.00
  -8 -10   3   -1.90    3.40
  -8 -10   3    2.90    3.30
  -8 -10   3    4.80    2.50
  -8  10   3    2.50    4.90
  -8  10   3    2.00    5.00
  -8  10   3    7.70    4.60
  -8  10   3    1.20    4.60
  -6 -10   3   23.90    3.30
   6 -10  -3   25.10    4.30
   6 -10  -3   28.90    4.60
  -6 -10   3   23.10    3.50
  -6 -10   3   22.10    3.10
  -6 -10   3   15.20    4.20
   6 -10  -3   22.00    5.50
   6 -10  -3   18.80    4.30
   6 -10  -3   19.20    4.20
  -6 -10   3   24.40    3.80
  -6  10   3   26.10    5.10
  -6  10   3   24.10    3.70
  -6  10   3   27.20    5.30
  -6  10   3   22.70    3.80
   4 -10  -3   11.50    4.40
   4 -10  -3    6.20    2.80
  -4 -10   3    8.60    2.70
  -4 -10   3    4.30    2.50
  -4 -10   3    6.60    3.70
  -4 -10   3   10.10    3.20
   4 -10  -3    9.80    3.10
   4 -10  -3    5.60    2.90
  -4 -10   3   12.20    2.90
   4 -10  -3    5.60    2.90
  -4  10   3    9.70    3.60
   4  10  -3   11.00    4.70
  -4  10   3   14.70    4.00
  -2 -10   3   20.00    3.30
   2 -10  -3   15.70    2.80
   2 -10  -3   12.50    2.90
   2 -10  -3   20.70    3.30
   2 -10  -3   17.10    3.10
   2 -10  -3   11.30    2.70
  -2 -10   3   12.50    4.40
   2 -10  -3   13.90    4.30
  -2 -10   3   16.00    3.30
  -2 -10   3   13.10    3.00
  -2 -10   3   16.60    3.30
  -2  10   3   14.90    3.40
   0 -10  -3  149.99    6.00
   0 -10  -3  141.29    6.20
   0 -10  -3  143.79    6.30
   0 -10   3  151.98    7.40
   0 -10   3  152.68    7.40
   0 -10   3  157.88    7.60
   0 -10   3  153.48   10.00
   0 -10   3  140.49    7.60
   0 -10   3  126.29    7.20
   0 -10  -3  144.99    9.40
   0 -10  -3  157.88    6.10
   0 -10  -3  145.29    5.70
   0 -10   3  159.48    7.60
  -2 -10  -3   59.59    7.30
  -2 -10  -3   62.79    3.60
  -2 -10  -3   55.99    6.70
  -2 -10  -3   54.69    3.80
   2 -10   3   58.69    5.90
   2 -10   3   43.90    6.20
   2 -10   3   65.59    6.10
   2 -10   3   56.59    5.50
  -2 -10  -3   51.89    3.40
   2 -10   3   59.79    5.70
   2 -10   3   50.49    6.10
  -2  10  -3   56.69    4.10
  -2  10  -3   52.19    4.60
   4 -10   3   98.69    7.90
   4 -10   3  102.79    8.30
   4 -10   3  108.29    7.80
  -4 -10  -3   95.79    7.90
   4 -10   3  111.89    7.50
   4 -10   3   90.59    9.50
  -4  10  -3  115.79    6.80
  -4  10  -3  115.09    6.70
   6 -10   3   17.70    4.10
  -6 -10  -3   20.30    4.90
   6 -10   3   29.20    5.00
   6 -10   3   29.30    5.70
   6 -10   3   29.70    5.60
   6 -10   3   28.60    6.70
  -6  10  -3   31.40    4.80
   8 -10   3   23.30    5.80
   8 -10   3   19.00    5.20
  -8 -10  -3   16.40    4.60
   8 -10   3   15.40    5.40
   8 -10   3   27.10    7.20
  -8  10  -3   13.90    4.40
  10 -10   3    4.30    5.40
  10 -10   3   18.30    7.10
  10 -10   3    2.00    5.20
 -10 -10  -3   -1.20    4.20
 -10  10  -3   -4.40    5.40
 -10  10  -3    3.80    5.00
  12 -10   3   -6.40    8.30
  12 -10   3    4.50    7.00
  12 -10   3    2.00    6.90
 -12  10  -3    6.10    6.50
 -12  10  -3  -10.30    7.00
  14 -10   3   17.10   11.10
  14 -10   3    7.70    8.90
  14 -10   3   15.70    9.40
 -14  10  -3    0.00    8.40
 -14  10  -3   15.50    9.80
  13 -11  -3  310.37   22.20
  13 -11  -3  244.78   17.60
  13 -11  -3  273.77   18.80
 -13 -11   3  291.77   11.60
  13 -11  -3  304.97   20.20
 -13  11   3  293.97   19.80
  11 -11  -3   53.79    9.20
  11 -11  -3   62.59   10.60
 -11 -11   3   69.59    6.40
  11 -11  -3   52.19    8.40
 -11  11   3   78.19   10.80
  -9 -11   3  184.28   10.20
   9 -11  -3  184.08   14.80
  -9 -11   3  179.48    7.90
   9 -11  -3  169.78   11.70
  -9 -11   3  169.88    6.40
   9 -11  -3  170.78   12.40
  -9  11   3  169.88   10.50
  -9  11   3  164.88   12.90
   7 -11  -3   91.59   10.80
  -7 -11   3   84.99    7.30
   7 -11  -3   88.19    8.70
  -7 -11   3   84.59    5.00
   7 -11  -3   78.09    8.20
  -7 -11   3   59.59    8.30
  -7  11   3   70.39    9.20
  -7  11   3   83.49    7.00
   5 -11  -3   41.00    5.00
  -5 -11   3   27.50    4.50
   5 -11  -3   38.30    7.70
   5 -11  -3   29.30    4.70
   5 -11  -3   32.00    5.40
  -5 -11   3   32.20    3.80
  -5 -11   3   38.40    4.90
  -5 -11   3   34.10    4.30
   5 -11  -3   36.40    4.90
  -5 -11   3   28.10    5.60
   5 -11  -3   38.30    5.10
  -5  11   3   30.10    5.60
  -5  11   3   34.20    5.50
  -3 -11   3   30.80    4.00
   3 -11  -3   39.20    5.00
  -3 -11   3   28.70    3.80
  -3 -11   3   30.20    5.60
   3 -11  -3   28.10    4.00
   3 -11  -3   33.80    4.30
  -3 -11   3   21.70    3.90
  -3 -11   3   30.50    3.90
   3 -11  -3   27.20    4.00
  -3 -11   3   26.70    3.80
   3 -11  -3   31.60    4.00
   3 -11  -3   28.40    6.40
  -3  11   3   34.80    4.80
  -1 -11   3  219.48   12.30
  -1 -11   3  231.38    9.90
   1 -11  -3  231.98    8.60
   1 -11  -3  217.08   12.30
  -1 -11   3  237.78    9.80
  -1 -11   3  227.28    9.50
   1 -11  -3  221.38    8.20
  -1 -11   3  238.28    9.40
   1 -11  -3  232.58    8.90
   1 -11  -3  227.18    8.70
  -1 -11   3  238.18    9.50
  -1 -11   3  206.48    9.50
   1 -11  -3  226.28    8.60
  -1  11   3  223.58    8.80
  -1 -11  -3   14.40    2.10
   1 -11   3   14.50    5.00
  -1 -11  -3   17.80    2.30
   1 -11   3   12.40    3.60
  -1 -11  -3   14.50    4.70
   1 -11   3   14.80    4.40
   1 -11   3   10.20    3.30
  -1 -11  -3   10.90    2.40
  -1 -11  -3   13.30    2.60
   1 -11   3   11.00    3.60
  -1 -11  -3   18.50    2.80
   1 -11   3   15.30    3.40
   3 -11   3   12.20    4.10
   3 -11   3    0.40    4.00
  -3 -11  -3   13.40    4.60
   3 -11   3    5.70    3.30
   3 -11   3    4.20    5.00
   3 -11   3   10.50    3.40
  -3 -11  -3   12.90    2.20
  -3  11  -3    9.40    2.80
  -3  11  -3   11.90    3.20
   5 -11   3  184.78   13.00
   5 -11   3  187.98   10.50
   5 -11   3  191.98   10.90
  -5 -11  -3  206.88   11.40
   5 -11   3  190.48   14.60
  -5  11  -3  192.28    9.40
  -5  11  -3  187.48    9.30
   7 -11   3   75.19    8.60
   7 -11   3   81.59   11.50
   7 -11   3   66.59    8.80
  -7 -11  -3   76.89    8.30
  -7  11  -3   72.39    8.10
  -9 -11  -3   10.90    5.30
   9 -11   3   20.70    8.10
   9 -11   3   24.20    6.70
   9 -11   3   11.20    5.50
  -9  11  -3   10.50    5.70
  11 -11   3   28.70    9.60
  11 -11   3   27.20    8.00
  11 -11   3   33.00    7.90
 -11  11  -3   24.90    7.40
  13 -11   3   47.40   10.40
  13 -11   3   43.80   13.10
  13 -11   3   44.10   10.80
 -13  11  -3   28.20    9.50
 -13  11  -3   30.70   10.30
  12 -12  -3  226.08   18.10
 -12 -12   3  202.18    8.80
  12 -12  -3  235.18   20.60
  12 -12  -3  247.18   17.20
 -12  12   3  201.18   18.40
 -12  12   3  217.58   16.10
 -10 -12   3  344.67   11.10
  10 -12  -3  358.66   18.10
  10 -12  -3  349.17   20.90
  10 -12  -3  342.77   17.50
 -10  12   3  343.67   18.70
 -10  12   3  339.57   15.50
  -8 -12   3    5.20    3.10
  -8 -12   3   10.20    5.50
   8 -12  -3   10.70    5.50
   8 -12  -3    0.00    5.10
   8 -12  -3    5.90    7.60
  -8  12   3    7.20    5.10
  -8  12   3    3.00    6.50
   6 -12  -3  319.17   13.50
  -6 -12   3  292.07   11.00
  -6 -12   3  287.07    9.40
   6 -12  -3  294.57   16.70
  -6 -12   3  299.77   14.10
   6 -12  -3  280.67   13.60
  -6  12   3  283.17   14.00
  -4 -12   3  742.43   24.40
   4 -12  -3  737.53   21.10
  -4 -12   3  778.22   21.10
  -4 -12   3  736.73   19.80
  -4 -12   3  706.03   20.70
  -4 -12   3  759.72   20.90
  -4 -12   3  766.92   19.50
   4 -12  -3  779.32   22.30
   4 -12  -3  712.73   22.40
   4 -12  -3  779.02   26.60
  -4  12   3  736.33   22.00
  -2 -12   3   80.99    6.60
  -2 -12   3   76.79    6.50
  -2 -12   3   76.09    6.00
   2 -12  -3   91.69    6.30
   2 -12  -3   78.59    6.20
   2 -12  -3   81.99    6.50
   2 -12  -3   72.19    6.30
  -2 -12   3   86.09    9.60
   2 -12  -3   83.79   10.20
  -2 -12   3   80.09    6.60
  -2 -12   3   80.69    6.90
   2 -12  -3   86.59    5.90
  -2  12   3   84.39    7.00
   0 -12   3  289.77   13.30
   0 -12  -3  271.77   10.10
   0 -12  -3  284.57    9.00
   0 -12   3  307.97   11.80
   0 -12   3  295.27   11.40
   0 -12  -3  262.37   18.50
   0 -12   3  284.67   11.60
   0 -12  -3  277.17    9.90
   0 -12   3  275.07   11.70
   0 -12  -3  271.57    9.20
   0 -12   3  277.57   14.90
   0 -12  -3  294.47   10.10
   2 -12   3   36.60    6.20
  -2 -12  -3   48.40    4.50
   2 -12   3   43.30    5.50
  -2 -12  -3   41.10    6.90
  -2 -12  -3   40.50    3.60
  -2 -12  -3   50.69    4.10
   2 -12   3   54.79    6.40
   2 -12   3   43.90    7.90
   4 -12   3  102.49    8.80
   4 -12   3  109.09   11.90
   4 -12   3  107.39    8.70
  -4 -12  -3   83.39    9.70
  -4 -12  -3   85.89    6.10
  -4  12  -3   84.99    6.80
  -6 -12  -3  405.86   16.90
   6 -12   3  395.26   16.60
   6 -12   3  420.46   17.20
   6 -12   3  401.56   19.90
  -6  12  -3  404.86   14.70
  -8 -12  -3    8.10    5.60
   8 -12   3   11.40    7.70
   8 -12   3   -2.50    5.50
   8 -12   3    8.40    5.50
  -8  12  -3   -2.80    5.50
  10 -12   3  187.48   14.90
  10 -12   3  220.98   18.90
  10 -12   3  196.18   15.20
 -10  12  -3  181.08   14.00
  12 -12   3  501.15   24.70
  12 -12   3  533.85   28.60
  12 -12   3  469.25   23.30
 -12  12  -3  497.95   21.90
  11 -13  -3  361.16   19.70
  11 -13  -3  398.76   21.60
  11 -13  -3  416.36   25.10
 -11  13   3  380.96   22.20
   9 -13  -3  478.55   21.00
   9 -13  -3  454.25   20.00
  -9 -13   3  462.65   12.90
   9 -13  -3  437.16   24.20
  -9  13   3  458.75   21.30
   7 -13  -3   32.00    6.80
  -7 -13   3   38.90    4.50
   7 -13  -3   35.70    6.90
   7 -13  -3   36.70    8.90
  -7 -13   3   31.40    7.50
  -7 -13   3   37.10    4.90
  -5 -13   3   17.20    6.20
   5 -13  -3   16.10    7.30
   5 -13  -3   23.20    5.30
   5 -13  -3   17.90    5.20
  -5 -13   3   20.40    3.60
  -5 -13   3   23.60    4.60
  -5 -13   3   14.40    4.30
  -5  13   3   16.50    6.10
   3 -13  -3    7.80    6.40
  -3 -13   3    4.70    3.70
  -3 -13   3   11.20    3.90
  -3 -13   3    6.40    6.70
   3 -13  -3    6.20    4.00
   3 -13  -3    8.40    3.90
  -3  13   3   13.00    4.90
  -1 -13   3  616.84   19.00
   1 -13  -3  606.44   16.90
   1 -13  -3  614.04   23.60
  -1 -13   3  608.84   23.30
   1 -13  -3  609.74   17.50
  -1 -13   3  587.84   18.50
   1 -13  -3  605.14   17.70
   1 -13  -3  582.64   17.80
   1 -13   3  603.24   23.90
  -1 -13  -3  599.64   16.30
   1 -13   3  595.04   18.80
  -1 -13  -3  598.44   16.50
  -1 -13  -3  590.14   14.40
  -1 -13  -3  591.94   16.00
  -1 -13  -3  619.34   23.20
   1 -13   3  591.34   19.30
   3 -13   3  134.69   13.90
  -3 -13  -3  134.39    6.70
   3 -13   3  149.69   10.30
   3 -13   3  129.79    9.70
  -3 -13  -3  144.69   12.40
   5 -13   3  409.36   17.10
  -5 -13  -3  401.56   20.70
   5 -13   3  463.55   18.10
   5 -13   3  452.65   21.70
   7 -13   3  849.81   27.20
   7 -13   3  772.12   30.90
   7 -13   3  816.92   27.40
  -7 -13  -3  804.52   27.30
  -7  13  -3  847.22   27.50
   9 -13   3  114.89   12.70
   9 -13   3  111.09   14.80
  -9 -13  -3   95.59   13.20
   9 -13   3   74.79   10.70
  11 -13   3   27.40    9.70
  11 -13   3   32.70   10.00
  11 -13   3   38.80   13.30
 -11  13  -3   42.00   10.50
   8 -14  -3  103.19   14.20
   8 -14  -3   68.99    9.80
   8 -14  -3   69.79    9.30
  -8  14   3   77.49   11.30
   6 -14  -3  670.73   27.90
  -6 -14   3  667.13   18.50
   6 -14  -3  686.13   22.50
   6 -14  -3  667.83   22.90
  -6 -14   3  609.04   26.80
  -6  14   3  602.24   25.60
   4 -14  -3 1095.59   30.40
   4 -14  -3 1084.29   29.50
  -4 -14   3 1087.09   34.10
   4 -14  -3 1070.99   36.40
  -4 -14   3 1095.99   28.50
  -4  14   3 1087.79   30.50
  -2 -14   3  505.05   17.10
  -2 -14   3  492.55   16.40
  -2 -14   3  524.55   22.50
   2 -14  -3  514.85   23.00
   2 -14  -3  496.55   16.80
   2 -14  -3  484.95   15.90
   0 -14  -3   35.20    8.20
   0 -14   3   37.00    8.40
   0 -14   3   27.80    5.40
   0 -14  -3   31.10    4.50
   0 -14   3   21.90    5.30
   0 -14  -3   37.20    4.00
   2 -14   3 1198.48   33.30
   2 -14   3 1207.18   32.70
  -2 -14  -3 1235.38   37.60
   2 -14   3 1224.38   38.80
  -4 -14  -3  802.52   28.40
   4 -14   3  777.12   30.80
   4 -14   3  823.32   25.40
   4 -14   3  841.22   26.50
  -6 -14  -3   63.69    9.70
   6 -14   3   55.69    8.30
   6 -14   3   64.39    9.10
   6 -14   3   54.79   11.70
  -8 -14  -3    3.70    8.00
   8 -14   3   23.30    7.70
   8 -14   3    5.00   10.70
   8 -14   3    5.00    6.90
   7 -15  -3  729.03   25.60
   7 -15  -3  728.93   26.20
   7 -15  -3  650.13   31.40
  -7  15   3  774.22   28.40
   5 -15  -3   12.70    9.50
   5 -15  -3   -6.70    5.60
  -5 -15   3    6.00    8.30
  -5 -15   3    7.50    4.80
   5 -15  -3   -0.90    6.00
   3 -15  -3  217.28   19.00
  -3 -15   3  214.08   10.70
  -3 -15   3  210.28   11.80
  -3 -15   3  228.48   17.70
   3 -15  -3  217.28   12.00
   3 -15  -3  237.78   12.70
  -1 -15   3  291.07   13.70
   1 -15  -3  319.37   20.00
  -1 -15   3  274.87   13.40
   1 -15  -3  285.37   12.20
  -1 -15   3  295.27   19.50
   1 -15  -3  272.97   11.20
   1 -15   3 1036.00   30.20
  -1 -15  -3 1042.10   25.30
  -1 -15  -3 1098.39   35.90
   1 -15   3 1008.40   36.20
   1 -15   3 1025.40   29.30
   3 -15   3   63.79   11.90
   3 -15   3   65.69    8.20
   3 -15   3   73.59    8.80
  -3 -15  -3   59.69   11.10
   5 -15   3  531.35   21.30
   5 -15   3  533.75   27.30
  -5 -15  -3  520.25   24.10
   5 -15   3  536.25   22.00
  -7 -15  -3  583.74   25.60
   7 -15   3  568.74   37.20
  -2 -16   3   83.49   10.30
  -2 -16   3  114.49   11.30
   2 -16  -3   97.39   10.00
  -2 -16   3   98.19   14.10
   2 -16  -3   89.39    9.80
   2 -16  -3   93.79   13.10
   0 -16   3  189.28   20.30
   0 -16   3  246.98   14.20
   0 -16  -3  248.28   11.30
   0 -16   3  233.68   14.10
   0 -16  -3  275.87   21.20
  -2 -16  -3  378.86   22.90
   2 -16   3  352.46   24.30
   2 -16   3  339.97   17.00
   2 -16   3  321.27   16.90
 -18   0   4  129.69   16.80
  18   0  -4  149.19   16.70
 -18   0   4  181.48   15.70
 -18   0   4  157.68   15.80
  16   0  -4  496.05   20.80
 -16   0   4  469.15   20.70
 -16   0   4  455.45   19.30
 -16   0   4  464.25   19.60
 -14   0   4  177.68   10.90
  14   0  -4  167.48   11.70
 -14   0   4  174.28   11.00
 -14   0   4  165.58    7.10
 -14   0   4  182.28   12.00
 -12   0   4  414.66   15.60
  12   0  -4  433.16   11.30
 -12   0   4  420.46   15.20
 -12   0   4  428.66   12.50
 -12   0   4  405.96   15.90
  12   0  -4  437.56   16.10
  10   0  -4 2284.67   54.29
  10   0  -4 2304.87   53.99
  10   0  -4 2387.56   51.19
 -10   0   4 2332.07   54.69
 -10   0   4 2293.17   53.59
  10   0  -4 2369.96   52.09
 -10   0   4 2381.66   54.39
  -8   0   4 1207.98   29.90
  -8   0   4 1099.79   29.20
   8   0  -4 1137.79   29.10
   8   0  -4 1216.58   28.00
   8   0  -4 1229.28   26.80
   8   0  -4 1175.48   28.80
  -8   0   4 1196.38   29.10
   6   0  -4 7267.67  152.18
   6   0  -4 7127.49  151.38
  -6   0   4 7569.64  151.58
  -6   0   4 7175.18  152.98
  -6   0   4 7256.87  152.38
   6   0  -4 7328.37  152.78
   4   0  -4 1467.05   33.00
  -4   0   4 1446.16   32.30
   4   0  -4 1445.56   33.30
  -4   0   4 1441.66   33.10
   4   0  -4 1436.96   32.30
  -2   0   4    5.90    1.30
  -2   0   4    9.80    1.80
   2   0  -4    7.30    1.60
   2   0  -4    6.10    1.40
   2   0  -4   11.40    2.20
   2   0  -4    9.50    1.60
   0   0  -4 3792.82   82.29
   0   0   4 3814.02   82.29
   0   0  -4 3931.81   82.29
   0   0   4 3915.51   82.19
   0   0   4 4000.90   81.99
   0   0  -4 3923.81   82.09
   0   0  -4 3944.21   83.89
  -2   0  -4  761.22   17.90
   2   0   4  703.63   19.10
   2   0   4  774.02   18.10
  -2   0  -4  706.93   19.20
   2   0   4  770.92   17.90
  -2   0  -4  743.43   18.00
   4   0   4 2055.49   48.70
   4   0   4 2157.98   47.10
   4   0   4 2215.48   47.70
  -4   0  -4 2135.89   46.70
   4   0   4 2178.58   47.40
  -4   0  -4 2121.69   47.40
  -4   0  -4 2253.27   47.40
  -4   0  -4 2218.98   48.90
  -6   0  -4  554.64   14.70
   6   0   4  541.75   15.20
   6   0   4  545.35   13.20
  -6   0  -4  553.34   14.90
  -6   0  -4  542.25   15.60
  -6   0  -4  549.15   15.30
   6   0   4  537.95   14.60
   6   0   4  556.04   14.50
   6   0   4  512.05   15.80
   6   0   4  539.55   14.90
   8   0   4  348.27    8.60
  -8   0  -4  341.67   11.40
   8   0   4  343.57   11.60
   8   0   4  347.77   11.80
   8   0   4  335.17   11.10
   8   0   4  341.77   11.30
  -8   0  -4  357.26   11.90
   8   0   4  347.97   12.40
  -8   0  -4  358.36   12.10
  10   0   4 3722.23   82.59
  10   0   4 3758.42   82.29
  10   0   4 3739.43   81.59
 -10   0  -4 3795.12   81.79
  10   0   4 3703.03   81.39
 -10   0  -4 3707.73   81.99
 -10   0  -4 3700.93   82.49
 -12   0  -4 2036.70   47.50
  12   0   4 2044.00   49.00
  12   0   4 2004.60   48.00
  12   0   4 2061.49   48.10
 -12   0  -4 2053.49   48.80
  14   0   4   27.30    5.90
 -14   0  -4   38.70    6.30
  14   0   4   42.10    6.40
 -16   0  -4  396.66   17.80
 -19  -1   4  668.13   27.70
 -19  -1   4  635.24   26.00
 -19  -1   4  613.24   27.80
  19  -1  -4  638.74   28.90
  19   1  -4  658.73   29.40
 -19   1   4  648.94   28.10
 -19   1   4  660.63   29.70
 -19   1   4  628.24   26.90
  17  -1  -4  970.70   32.80
 -17  -1   4 1038.70   31.30
 -17  -1   4  971.80   32.20
 -17  -1   4  962.30   31.40
  17   1  -4  988.40   33.50
 -17   1   4 1032.30   31.90
 -17   1   4  982.40   33.60
 -17   1   4  998.30   32.40
 -15  -1   4  118.99    6.20
 -15  -1   4  103.19   10.10
  15  -1  -4  121.49   11.30
 -15  -1   4  120.99   10.30
 -15  -1   4  117.99   11.10
 -15   1   4  111.59    6.10
 -15   1   4  129.39   11.10
 -15   1   4  115.29   10.50
 -15   1   4  127.39   11.90
  15   1  -4  125.59   11.40
 -13  -1   4  106.79    8.40
  13  -1  -4  103.89    6.30
  13  -1  -4  103.69    8.90
 -13  -1   4  100.89    8.80
 -13  -1   4   96.29    8.10
 -13   1   4  112.19    8.70
  13   1  -4  102.69    9.10
 -13   1   4  108.89    9.60
 -13   1   4  106.99    5.70
 -13   1   4  104.89    8.80
 -11  -1   4 2071.39   49.30
  11  -1  -4 2027.80   45.40
 -11  -1   4 2031.10   48.20
 -11  -1   4 2022.80   48.80
  11  -1  -4 2082.89   47.00
  11  -1  -4 2009.50   49.20
 -11   1   4 2047.30   48.70
  11   1  -4 2071.69   49.60
 -11   1   4 2092.89   49.60
 -11   1   4 2039.70   45.60
 -11   1   4 2071.59   49.90
   9  -1  -4 2293.37   52.79
  -9  -1   4 2327.77   50.99
  -9  -1   4 2317.97   52.89
   9  -1  -4 2234.08   51.99
  -9  -1   4 2236.18   52.49
   9  -1  -4 2348.17   50.19
  -9  -1   4 2350.96   52.19
   9  -1  -4 2295.97   51.09
   9   1  -4 2337.37   52.99
  -9   1   4 2296.97   53.29
  -9   1   4 2212.28   52.29
   9   1  -4 2160.48   51.49
   9   1  -4 2240.48   52.29
  -9   1   4 2349.56   53.19
  -9   1   4 2299.67   51.19
   9   1  -4 2291.87   50.49
   9   1  -4 2306.67   48.50
  -9   1   4 2289.57   50.39
  -7  -1   4  192.48    7.70
  -7  -1   4  184.58    8.00
   7  -1  -4  177.28    7.40
  -7  -1   4  190.68    6.90
   7  -1  -4  197.48    8.10
   7  -1  -4  186.38    7.00
   7   1  -4  181.68    6.70
  -7   1   4  194.38    8.30
   7   1  -4  179.28    7.50
  -7   1   4  186.18    8.00
  -7   1   4  184.08    7.70
  -7   1   4  182.58    7.00
   7   1  -4  196.58    7.90
   7   1  -4  195.18    6.80
   5  -1  -4 1885.21   42.10
  -5  -1   4 1787.22   42.00
   5  -1  -4 1789.32   40.90
  -5  -1   4 1776.72   41.50
   5  -1  -4 1925.01   41.70
  -5  -1   4 1897.11   40.90
   5   1  -4 1842.32   41.90
  -5   1   4 1729.03   43.80
  -5   1   4 1866.11   40.90
   5   1  -4 1953.40   41.70
  -5   1   4 1876.31   41.80
   5   1  -4 1939.61   41.40
   5   1  -4 1862.11   40.70
   3  -1  -4 1041.10   23.90
  -3  -1   4 1040.00   23.90
   3  -1  -4 1016.70   24.60
  -3  -1   4 1020.50   24.50
   3   1  -4 1074.69   24.90
  -3   1   4 1049.20   24.80
   3   1  -4 1061.89   24.80
   3   1  -4 1025.10   23.80
  -3   1   4 1078.59   23.90
  -3   1   4  955.80   24.50
   3   1  -4 1073.19   24.60
  -1  -1   4 3184.78   69.59
   1  -1  -4 3036.50   68.69
  -1  -1   4 3142.39   68.79
  -1  -1   4 3326.97   69.19
   1  -1  -4 3145.89   68.89
   1  -1  -4 3219.08   68.69
   1   1  -4 3283.07   69.09
  -1   1   4 3282.97   69.09
  -1   1   4 3365.16   68.29
  -1   1   4 3368.46   68.79
   1  -1   4  692.43   17.40
   1  -1   4  686.73   18.60
   1  -1   4  730.63   16.90
  -1  -1  -4  742.43   18.80
  -1  -1  -4  721.43   17.10
  -1  -1  -4  730.83   16.70
   1  -1   4  747.33   17.40
  -1  -1  -4  701.93   17.20
  -1   1  -4  703.03   17.40
   1   1   4  732.73   16.40
  -1   1  -4  703.23   18.40
  -1   1  -4  610.64   17.10
   1   1   4  711.33   17.00
   1   1   4  735.13   17.30
  -1   1  -4  718.33   17.30
   3  -1   4 1185.18   28.00
   3  -1   4 1250.67   28.00
  -3  -1  -4 1261.37   27.10
  -3  -1  -4 1207.78   27.30
  -3  -1  -4 1195.28   27.60
   3  -1   4 1202.48   29.40
  -3  -1  -4 1202.48   29.40
   3  -1   4 1253.07   28.40
  -3   1  -4 1196.98   29.20
   3   1   4 1243.08   27.60
   3   1   4 1205.58   27.40
  -3   1  -4 1244.48   28.00
  -3   1  -4 1201.58   27.40
  -3   1  -4 1207.38   28.10
  -5  -1  -4 2371.06   53.59
   5  -1   4 2504.05   55.09
  -5  -1  -4 2566.64   54.79
  -5  -1  -4 2494.35   53.49
   5  -1   4 2475.85   54.29
  -5  -1  -4 2442.66   55.19
   5  -1   4 2356.36   55.49
   5  -1   4 2538.85   54.69
   5   1   4 2470.45   53.79
  -5   1  -4 2482.15   54.39
  -5   1  -4 2528.05   54.19
  -5   1  -4 2518.35   53.99
   5   1   4 2438.86   52.79
   5   1   4 2422.36   53.39
  -5   1  -4 2489.85   55.29
   5   1   4 2523.55   54.09
   7  -1   4 1449.46   35.30
  -7  -1  -4 1438.96   34.10
  -7  -1  -4 1465.25   33.80
  -7  -1  -4 1522.35   35.30
   7  -1   4 1464.75   34.60
   7  -1   4 1442.86   34.50
   7  -1   4 1507.25   34.90
  -7  -1  -4 1498.15   35.30
   7  -1   4 1467.65   35.00
   7  -1   4 1450.15   35.90
   7   1   4 1465.75   33.70
   7   1   4 1492.85   34.40
  -7   1  -4 1485.05   34.90
  -7   1  -4 1472.15   34.50
  -7   1  -4 1506.55   35.50
   7   1   4 1543.85   34.50
   7   1   4 1474.55   32.10
  -7   1  -4 1493.55   34.60
   7   1   4 1468.55   34.00
   9  -1   4  152.78    8.60
  -9  -1  -4  154.28    7.70
   9  -1   4  172.68    8.10
   9  -1   4  164.68    8.70
   9  -1   4  165.38    8.50
   9  -1   4  170.38    8.00
  -9  -1  -4  157.08    9.10
  -9   1  -4  165.38    8.10
   9   1   4  157.18    7.60
   9   1   4  170.88    9.20
   9   1   4  170.78    7.30
  -9   1  -4  165.88    8.20
   9   1   4  172.28    8.00
  -9   1  -4  167.68    8.50
  11  -1   4  412.26   14.70
 -11  -1  -4  445.46   14.00
 -11  -1  -4  426.46   14.30
  11  -1   4  447.36   14.70
  11  -1   4  416.76   15.50
  11   1   4  442.06   14.20
 -11   1  -4  445.06   15.20
  11   1   4  402.46   14.60
 -11   1  -4  411.86   14.30
  13  -1   4  290.97   14.00
 -13  -1  -4  304.57   11.50
  13  -1   4  306.87   13.10
  13  -1   4  302.27   13.30
 -13  -1  -4  291.17   12.50
  13   1   4  296.17   12.60
 -13   1  -4  273.07   12.30
 -13   1  -4  302.87   13.40
 -15  -1  -4  940.91   27.30
  15  -1   4  924.61   28.00
  15  -1   4  975.50   28.60
  15   1   4  955.10   27.20
 -15   1  -4  768.22   33.10
 -17   1  -4  499.55   21.60
 -18  -2   4   -2.40    7.80
 -18  -2   4   -8.80    7.90
 -18  -2   4   -0.30    7.10
  18  -2  -4   -4.90    8.40
 -18   2   4    5.00    9.20
  18   2  -4    8.50    9.70
 -18   2   4  -10.70    7.70
 -18   2   4    7.40   10.20
 -16  -2   4  371.56   17.10
 -16  -2   4  382.16   18.20
  16  -2  -4  373.36   18.40
 -16  -2   4  391.76   17.10
  16   2  -4  406.66   19.60
 -16   2   4  350.46   19.60
 -16   2   4  397.96   18.10
 -16   2   4  369.06   18.50
  14  -2  -4  764.72   27.20
  14  -2  -4  861.41   22.70
 -14  -2   4  898.81   25.50
 -14  -2   4  869.31   26.40
 -14  -2   4  872.61   25.80
  14   2  -4  845.82   27.10
 -14   2   4  838.12   27.50
 -14   2   4  862.81   21.00
 -14   2   4  867.81   26.60
 -14   2   4  866.61   27.90
 -12  -2   4 1141.29   31.20
 -12  -2   4 1194.68   31.00
 -12  -2   4 1172.38   30.30
  12  -2  -4 1169.58   31.60
  12  -2  -4 1144.99   28.30
 -12   2   4 1120.59   31.60
 -12   2   4 1125.89   32.20
  12   2  -4 1155.48   31.80
 -12   2   4 1160.38   27.40
 -12   2   4 1157.48   31.30
  10  -2  -4   26.60    4.20
 -10  -2   4   19.30    3.60
  10  -2  -4   23.80    3.40
 -10  -2   4   18.70    3.30
 -10  -2   4   18.70    3.50
  10  -2  -4   25.30    3.60
 -10  -2   4   25.30    4.00
 -10   2   4   30.50    3.70
 -10   2   4   23.60    4.00
  10   2  -4   22.80    3.90
 -10   2   4   23.90    4.10
  10   2  -4   22.60    3.10
 -10   2   4   24.20    4.70
   8  -2  -4  903.21   23.30
  -8  -2   4  857.41   21.40
  -8  -2   4  849.32   22.30
  -8  -2   4  857.01   22.90
   8  -2  -4  860.01   22.70
   8  -2  -4  890.71   21.70
   8  -2  -4  883.81   22.00
   8   2  -4  875.51   19.70
   8   2  -4  872.31   22.70
  -8   2   4  845.52   21.40
  -8   2   4  852.41   21.60
  -8   2   4  878.01   23.00
  -8   2   4  863.71   23.40
   8   2  -4  878.71   22.30
   8   2  -4  849.91   23.00
   8   2  -4  896.81   20.90
  -8   2   4  814.52   23.40
   6  -2  -4 2507.65   55.19
  -6  -2   4 2694.13   54.99
  -6  -2   4 2486.65   56.09
   6  -2  -4 2471.55   56.19
   6  -2  -4 2634.54   55.99
  -6  -2   4 2473.65   55.59
  -6   2   4 2535.35   56.59
   6   2  -4 2533.35   55.59
  -6   2   4 2490.85   55.19
   6   2  -4 2511.75   54.29
   6   2  -4 2584.64   54.39
  -6   2   4 2399.76   55.79
   6   2  -4 2566.74   55.99
  -6   2   4 2465.55   56.39
  -6   2   4 2582.24   54.99
   4  -2  -4 3119.49   65.69
  -4  -2   4 2944.61   65.59
   4  -2  -4 3093.19   66.09
  -4  -2   4 3106.29   64.99
   4  -2  -4 2976.10   65.09
  -4  -2   4 2921.01   65.99
  -4   2   4 3148.28   64.99
   4   2  -4 3070.49   65.39
   4   2  -4 3155.98   65.79
   4   2  -4 3077.29   65.99
  -4   2   4 3078.89   65.79
   4   2  -4 3041.80   64.69
  -4   2   4 2917.31   65.49
  -4   2   4 3039.90   66.19
  -2  -2   4   31.60    2.90
  -2  -2   4   27.20    3.30
   2  -2  -4   27.80    2.40
   2  -2  -4   24.50    2.40
   2  -2  -4   29.90    2.60
  -2  -2   4   25.20    2.50
  -2  -2   4   27.30    2.80
   2   2  -4   28.80    3.50
  -2   2   4   25.80    2.40
   2   2  -4   26.70    2.40
  -2   2   4   28.00    2.80
  -2   2   4   24.30    2.50
   2   2  -4   25.60    2.60
  -2   2   4   33.60    2.60
   0  -2  -4  485.25   12.60
   0  -2   4  465.45   12.90
   0  -2   4  506.15   12.60
   0  -2   4  477.85   13.00
   0  -2  -4  472.25   12.10
   0  -2  -4  486.25   12.50
   0   2  -4  499.05   13.00
   0   2  -4  496.65   12.90
   0   2  -4  487.45   12.60
   0   2  -4  484.55   13.60
   0   2   4  484.95   13.00
   0   2   4  495.25   12.50
   0   2   4  481.45   11.70
  -2  -2  -4 1698.93   37.30
   2  -2   4 1689.23   38.40
  -2  -2  -4 1704.03   37.60
  -2  -2  -4 1707.13   36.80
   2  -2   4 1733.53   39.60
   2  -2   4 1727.13   38.40
   2  -2   4 1758.82   37.80
  -2   2  -4 1785.52   38.40
  -2   2  -4 1764.82   39.50
   2   2   4 1731.03   37.40
  -2   2  -4 1718.73   38.40
   2   2   4 1597.04   39.20
   4  -2   4 4845.42  105.89
  -4  -2  -4 5130.29  107.29
  -4  -2  -4 4998.10  104.49
   4  -2   4 4809.42  105.59
  -4  -2  -4 4984.10  104.69
   4  -2   4 5071.39  106.29
   4  -2   4 5020.00  107.39
   4   2   4 4995.80  104.79
   4   2   4 4952.50  104.49
  -4   2  -4 4980.40  105.29
   4   2   4 4925.31  104.59
  -4   2  -4 5197.88  107.29
  -4   2  -4 5132.19  104.79
  -4   2  -4 5175.68  105.89
  -4   2  -4 5033.60  106.09
  -6  -2  -4  308.47    9.10
   6  -2   4  316.97   10.80
   6  -2   4  320.87   11.00
   6  -2   4  311.67   10.20
  -6  -2  -4  312.77   10.90
  -6  -2  -4  300.77    9.30
   6  -2   4  317.67   11.50
   6  -2   4  315.27   10.40
  -6  -2  -4  322.77   11.00
  -6   2  -4  298.17   10.90
   6   2   4  314.97    9.20
   6   2   4  324.37    9.20
  -6   2  -4  318.47   10.40
   6   2   4  311.67    8.80
  -6   2  -4  309.77    9.60
  -6   2  -4  296.27   11.60
   6   2   4  315.37    9.50
   6   2   4  304.97    9.50
  -8  -2  -4 1424.96   33.20
   8  -2   4 1451.15   35.20
   8  -2   4 1363.46   34.60
   8  -2   4 1392.76   34.10
   8  -2   4 1423.36   34.40
  -8  -2  -4 1434.86   35.20
  -8  -2  -4 1413.86   34.10
   8  -2   4 1429.16   34.40
   8  -2   4 1415.06   35.40
  -8   2  -4 1418.46   34.60
  -8   2  -4 1453.55   33.60
  -8   2  -4 1427.36   34.70
   8   2   4 1415.36   32.80
   8   2   4 1429.06   33.10
   8   2   4 1403.36   32.50
   8   2   4 1418.66   33.10
   8   2   4 1437.16   31.30
  -8   2  -4 1447.96   35.00
  10  -2   4 2704.23   61.39
  10  -2   4 2673.33   62.59
 -10  -2  -4 2716.43   60.49
  10   2   4 2686.93   60.39
  10   2   4 2752.82   59.89
 -10   2  -4 2749.43   61.09
 -10   2  -4 2710.83   62.19
  10   2   4 2701.63   59.79
 -10   2  -4 2694.53   61.59
  12  -2   4  607.94   19.90
 -12  -2  -4  646.24   18.10
  12  -2   4  644.84   20.90
  12  -2   4  624.24   20.30
  12   2   4  643.14   18.40
 -12   2  -4  620.94   19.50
  12   2   4  630.74   19.70
 -12   2  -4  608.04   20.20
  12   2   4  641.94   18.50
  14  -2   4   17.50    6.50
  14  -2   4    9.80    5.60
  14  -2   4   30.00    7.10
 -14   2  -4   18.60    5.70
  14   2   4   16.90    5.60
  16  -2   4  479.85   20.70
  16  -2   4  501.95   21.50
 -16   2  -4  469.15   20.10
 -18   2  -4  137.19   16.40
  17  -3  -4  530.15   22.70
 -17  -3   4  535.95   20.70
 -17  -3   4  499.15   21.70
 -17  -3   4  527.85   21.20
 -17   3   4  484.95   24.70
  17   3  -4  496.55   23.60
 -17   3   4  535.65   23.10
 -17   3   4  509.05   23.10
 -15  -3   4  601.74   20.60
 -15  -3   4  636.94   21.50
  15  -3  -4  651.23   19.80
 -15  -3   4  626.94   22.20
  15  -3  -4  623.34   22.80
 -15   3   4  631.84   23.00
  15   3  -4  624.94   23.50
 -15   3   4  617.74   23.20
 -13  -3   4 1034.30   29.10
  13  -3  -4 1015.60   29.70
 -13  -3   4 1040.40   28.70
 -13  -3   4 1056.89   28.20
  13  -3  -4 1015.30   27.00
 -13   3   4 1038.20   29.90
 -13   3   4 1051.59   31.20
 -13   3   4 1022.00   25.10
 -13   3   4 1075.49   30.60
  13   3  -4 1003.50   30.10
 -11  -3   4 2057.69   49.00
  11  -3  -4 2084.19   47.60
 -11  -3   4 2085.99   48.80
  11  -3  -4 2022.00   50.19
 -11  -3   4 2049.49   48.10
  11  -3  -4 2079.09   48.00
 -11   3   4 2034.10   46.10
 -11   3   4 2077.79   50.29
 -11   3   4 1983.50   49.40
  11   3  -4 2108.59   50.19
 -11   3   4 2119.69   50.89
   9  -3  -4    7.80    2.60
   9  -3  -4    4.80    2.40
  -9  -3   4    4.30    2.40
   9  -3  -4    7.40    2.90
  -9  -3   4    2.00    2.30
  -9  -3   4    8.20    2.50
  -9  -3   4    4.10    2.40
   9  -3  -4   16.10    3.10
   9   3  -4    3.10    2.50
  -9   3   4    4.80    2.70
  -9   3   4    9.70    2.30
  -9   3   4    9.10    3.30
   9   3  -4    3.90    3.10
  -9   3   4   10.00    3.10
   9   3  -4   10.90    3.10
   9   3  -4    7.40    2.00
  -9   3   4    8.10    3.00
   7  -3  -4  153.78    7.30
   7  -3  -4  151.38    6.80
   7  -3  -4  148.89    6.50
  -7  -3   4  145.09    6.90
  -7  -3   4  147.99    6.70
  -7  -3   4  150.28    6.10
   7  -3  -4  146.99    7.00
   7   3  -4  150.28    7.20
   7   3  -4  144.19    5.50
   7   3  -4  163.38    7.00
   7   3  -4  165.58    7.20
  -7   3   4  154.38    7.30
  -7   3   4  149.88    7.70
  -7   3   4  153.68    7.50
   7   3  -4  151.98    5.20
  -7   3   4  143.69    6.50
  -7   3   4  151.98    6.50
  -5  -3   4   73.49    4.60
   5  -3  -4   72.69    4.40
  -5  -3   4   68.19    3.90
   5  -3  -4   64.29    4.00
   5  -3  -4   79.59    4.70
  -5  -3   4   63.19    4.30
  -5  -3   4   72.09    3.90
  -5   3   4   70.99    4.00
   5   3  -4   74.69    4.00
  -5   3   4   70.19    4.50
  -5   3   4   69.69    4.70
  -5   3   4   66.89    4.30
   5   3  -4   69.79    4.40
  -5   3   4   61.59    4.40
   5   3  -4   75.49    3.60
   5   3  -4   71.39    4.40
  -3  -3   4 1157.78   27.70
  -3  -3   4 1234.88   27.00
   3  -3  -4 1207.28   27.20
  -3  -3   4 1144.49   27.70
   3  -3  -4 1136.79   27.40
   3  -3  -4 1035.90   26.40
  -3  -3   4 1123.99   27.30
  -3   3   4 1193.68   27.70
  -3   3   4 1200.58   26.50
   3   3  -4 1240.28   27.40
  -3   3   4 1177.98   27.20
  -3   3   4 1174.08   27.50
   3   3  -4 1152.18   26.30
   3   3  -4 1192.68   27.50
  -1  -3   4   70.79    3.90
  -1  -3   4   80.49    4.30
   1  -3  -4   77.79    3.80
   1  -3  -4   68.99    3.50
  -1  -3   4   77.19    4.70
   1  -3  -4   76.99    3.90
   1   3  -4   98.69    5.00
   1   3  -4   73.99    3.90
   1   3  -4   84.39    4.00
   1   3  -4   83.29    4.20
  -1   3   4   81.89    3.80
  -1   3   4   82.79    3.40
  -1   3   4   75.29    4.20
   1  -3   4  795.62   19.80
   1  -3   4  844.12   21.30
  -1  -3  -4  806.32   18.90
   1  -3   4  814.72   19.50
  -1  -3  -4  806.12   18.50
  -1  -3  -4  814.72   19.20
   1  -3   4  812.12   20.10
  -1   3  -4  796.82   19.50
   1   3   4  790.12   19.00
  -1   3  -4  824.82   21.00
  -1   3  -4  818.92   19.80
  -1   3  -4  832.92   20.10
   1   3   4  825.32   20.00
   1   3   4  810.02   18.90
   3  -3   4  704.63   19.30
  -3  -3  -4  691.23   16.60
  -3  -3  -4  701.43   15.90
   3  -3   4  700.53   18.30
  -3  -3  -4  723.03   16.40
   3  -3   4  680.63   17.80
   3   3   4  693.23   17.40
  -3   3  -4  708.93   16.10
  -3   3  -4  682.43   17.30
  -3   3  -4  693.23   17.90
   3   3   4  708.63   16.50
  -3   3  -4  720.43   18.20
  -3   3  -4  683.03   18.90
   5  -3   4 3490.95   76.29
  -5  -3  -4 3627.44   76.29
  -5  -3  -4 3502.95   76.19
  -5  -3  -4 3519.25   73.49
   5  -3   4 3477.75   76.89
  -5  -3  -4 3487.45   73.19
   5  -3   4 3424.96   75.49
   5  -3   4 3443.46   75.29
   5  -3   4 3546.35   75.89
   5   3   4 3280.27   73.79
   5   3   4 3512.95   73.39
   5   3   4 3410.16   73.09
  -5   3  -4 3583.14   76.69
  -5   3  -4 3458.35   73.39
  -5   3  -4 3447.35   75.59
  -5   3  -4 3505.95   75.29
  -5   3  -4 3435.06   74.59
   7  -3   4  542.25   15.90
   7  -3   4  477.35   15.70
  -7  -3  -4  510.55   16.10
   7  -3   4  498.95   16.60
   7  -3   4  510.65   16.20
   7  -3   4  524.75   15.70
  -7  -3  -4  535.25   15.70
   7  -3   4  536.45   15.60
  -7  -3  -4  521.75   13.80
  -7   3  -4  545.75   15.60
  -7   3  -4  532.15   14.20
   7   3   4  521.15   13.40
   7   3   4  524.15   13.70
   7   3   4  529.95   13.80
   7   3   4  513.65   13.60
   7   3   4  528.85   13.60
  -7   3  -4  499.35   15.70
   7   3   4  521.85   13.50
  -7   3  -4  521.85   15.70
  -7   3  -4  523.15   16.30
   9  -3   4  695.13   21.60
   9  -3   4  706.73   20.70
   9  -3   4  741.63   22.20
   9  -3   4  721.73   21.00
  -9  -3  -4  737.33   20.20
  -9   3  -4  762.42   21.60
   9   3   4  770.22   19.30
   9   3   4  734.03   18.50
   9   3   4  737.63   18.80
  -9   3  -4  722.93   21.20
   9   3   4  738.33   18.60
  -9   3  -4  745.53   19.80
  11  -3   4   73.79    7.40
  11  -3   4   71.69    8.20
 -11  -3  -4   79.39    6.20
  11  -3   4   64.29    7.20
  11   3   4   70.49    6.60
  11   3   4   65.79    5.70
 -11   3  -4   71.19    7.10
 -11   3  -4   73.89    7.90
  11   3   4   65.89    5.50
 -13  -3  -4  165.68    8.70
  13  -3   4  179.48   12.00
  13  -3   4  178.58   12.10
  13  -3   4  173.08   11.20
  13   3   4  186.18    9.30
 -13   3  -4  182.28   11.30
  15  -3   4  209.08   14.00
  15  -3   4  171.78   14.50
 -15   3  -4  194.58   13.60
 -17   3  -4    0.60    7.70
 -18  -4   4   43.30    9.30
 -18  -4   4   46.90    9.70
  18  -4  -4   32.60   10.20
 -18  -4   4   36.90    8.50
  18   4  -4   46.60   12.40
 -18   4   4   30.80   10.60
 -18   4   4   28.50   12.80
 -18   4   4   45.80   11.50
  16  -4  -4   60.89    9.30
 -16  -4   4   44.50    7.60
 -16  -4   4   39.40    7.30
 -16  -4   4   49.00    8.00
  16  -4  -4   50.59    8.60
 -16   4   4   26.30    9.00
  16   4  -4   53.29    9.50
 -16   4   4   54.69    9.70
 -16   4   4   54.69    9.40
  14  -4  -4  103.69    9.40
  14  -4  -4  108.49   10.10
 -14  -4   4  113.19    8.80
 -14  -4   4  116.69    9.60
 -14  -4   4  100.79    9.00
  14   4  -4  129.59   11.50
 -14   4   4   92.09   10.50
 -14   4   4  109.89   12.10
 -14   4   4  104.19   10.60
 -12  -4   4    8.90    3.60
 -12  -4   4    5.00    3.30
 -12  -4   4   -0.30    3.00
  12  -4  -4    5.60    3.90
 -12   4   4    7.00    4.50
 -12   4   4    1.60    2.70
 -12   4   4    1.40    4.10
  12   4  -4    4.80    3.90
 -12   4   4    3.90    4.10
  10  -4  -4   81.09    5.90
 -10  -4   4   71.99    5.80
  10  -4  -4   72.29    6.30
 -10  -4   4   80.49    5.90
  10  -4  -4   87.19    7.10
 -10  -4   4   72.69    6.10
 -10  -4   4   67.59    5.70
 -10   4   4   77.39    5.30
 -10   4   4   81.99    7.40
  10   4  -4   72.69    7.00
 -10   4   4   79.19    7.20
 -10   4   4   75.39    7.60
   8  -4  -4   16.70    3.10
   8  -4  -4   14.10    3.00
   8  -4  -4    9.10    2.90
  -8  -4   4   16.80    2.80
   8  -4  -4   23.00    3.90
  -8  -4   4   13.70    3.00
  -8  -4   4   17.90    3.10
  -8   4   4   12.50    3.40
   8   4  -4   19.90    2.60
   8   4  -4   15.40    2.10
   8   4  -4   14.20    3.20
  -8   4   4   13.90    3.20
  -8   4   4   14.70    2.80
  -8   4   4   12.60    3.10
   8   4  -4   14.10    3.20
   8   4  -4   16.40    3.20
  -8   4   4   13.20    3.30
  -6  -4   4  903.41   23.40
   6  -4  -4  897.61   23.70
  -6  -4   4  937.81   22.10
  -6  -4   4  925.41   22.90
   6  -4  -4  947.51   23.50
   6  -4  -4  899.51   23.70
  -6  -4   4  934.41   21.90
   6  -4  -4  928.41   22.90
  -6   4   4  906.51   24.10
  -6   4   4  936.91   23.10
   6   4  -4  906.81   22.80
   6   4  -4  901.61   23.20
  -6   4   4  938.21   23.70
  -6   4   4  953.00   24.20
   6   4  -4  942.41   21.60
  -6   4   4  920.01   22.40
   6   4  -4  906.21   23.00
  -4  -4   4  804.12   20.00
   4  -4  -4  782.42   19.80
   4  -4  -4  768.82   19.40
  -4  -4   4  776.12   20.20
   4  -4  -4  761.92   20.10
  -4  -4   4  827.92   19.40
  -4   4   4  810.02   19.20
   4   4  -4  787.72   19.50
  -4   4   4  826.02   20.60
   4   4  -4  790.92   19.80
   4   4  -4  812.52   19.80
   4   4  -4  786.82   19.80
  -4   4   4  770.92   20.30
  -4   4   4  785.62   20.20
   2  -4  -4    0.90    1.20
   2  -4  -4    0.20    1.20
   2  -4  -4    4.70    1.30
   2  -4  -4    1.80    1.70
  -2  -4   4    2.20    1.40
  -2  -4   4    1.80    1.60
  -2  -4   4    3.90    1.40
  -2  -4   4    4.10    1.60
  -2   4   4    2.30    1.30
  -2   4   4    1.80    1.10
   2   4  -4    2.30    1.80
   2   4  -4    1.30    1.40
   2   4  -4   -0.40    1.20
   2   4  -4    0.70    1.20
  -2   4   4    3.70    1.40
  -2   4   4    2.30    1.60
   0  -4   4  551.44   16.20
   0  -4  -4  574.44   14.00
   0  -4   4  585.54   15.30
   0  -4   4  566.04   15.40
   0  -4  -4  611.14   15.50
   0  -4   4  609.14   15.10
   0  -4  -4  582.24   14.70
   0  -4  -4  576.84   14.40
   0   4  -4  606.04   16.40
   0   4   4  596.34   14.50
   0   4   4  583.24   12.70
   0   4   4  565.14   15.60
   0   4  -4  609.34   15.40
   0   4  -4  573.24   14.90
   0   4   4  564.54   14.20
   0   4  -4  577.14   15.20
  -2  -4  -4  673.23   16.60
  -2  -4  -4  632.84   14.50
   2  -4   4  622.94   16.60
  -2  -4  -4  628.44   15.30
  -2  -4  -4  644.84   15.10
   2  -4   4  632.64   17.00
   2  -4   4  596.74   17.70
   2  -4   4  632.34   16.20
  -2   4  -4  667.63   17.00
   2   4   4  637.94   15.00
  -2   4  -4  657.43   18.00
  -2   4  -4  631.44   16.60
  -2   4  -4  633.54   16.20
   2   4   4  615.84   16.60
  -4  -4  -4   30.60    2.30
  -4  -4  -4   29.40    2.90
  -4  -4  -4   31.90    2.10
   4  -4   4   33.20    3.50
   4  -4   4   25.80    3.50
   4  -4   4   32.60    4.40
   4  -4   4   27.60    3.70
   4  -4   4   33.00    4.20
  -4   4  -4   37.30    3.70
  -4   4  -4   21.30    2.90
  -4   4  -4   30.80    3.20
   4   4   4   33.60    2.40
  -4   4  -4   30.50    2.20
   4   4   4   26.50    2.30
   4   4   4   29.10    2.30
   4   4   4   32.30    3.30
  -4   4  -4   32.70    4.30
   4   4   4   29.40    2.30
   6  -4   4   40.70    5.20
  -6  -4  -4   37.00    2.70
   6  -4   4   33.70    4.40
   6  -4   4   34.20    4.30
   6  -4   4   36.80    4.60
  -6  -4  -4   38.60    5.00
   6  -4   4   31.60    4.20
  -6  -4  -4   38.20    2.60
  -6  -4  -4   35.50    4.30
  -6  -4  -4   39.10    3.30
   6   4   4   34.60    2.70
  -6   4  -4   46.40    4.70
   6   4   4   36.10    3.50
  -6   4  -4   33.30    4.50
  -6   4  -4   35.20    4.40
   6   4   4   33.40    2.70
   6   4   4   32.10    2.80
  -6   4  -4   37.20    3.80
   6   4   4   35.80    2.80
   6   4   4   34.40    2.80
   8  -4   4    7.10    3.40
   8  -4   4   13.40    3.80
   8  -4   4   20.10    4.50
   8  -4   4   11.00    3.10
   8  -4   4    9.20    3.10
  -8  -4  -4   16.90    3.50
   8   4   4    7.00    2.20
   8   4   4   14.20    2.30
   8   4   4   11.40    2.20
  -8   4  -4    7.10    2.80
  -8   4  -4    2.70    3.70
   8   4   4   12.70    2.30
  10  -4   4  384.46   14.60
  10  -4   4  415.96   10.70
 -10  -4  -4  415.26   13.60
  10  -4   4  405.16   15.00
  10  -4   4  416.06   16.30
 -10   4  -4  432.46   15.60
  10   4   4  417.06   12.60
  10   4   4  403.06   13.40
  12  -4   4  721.43   23.10
 -12  -4  -4  753.32   20.00
  12  -4   4  746.73   24.10
  12  -4   4  708.93   22.60
  12   4   4  701.33   20.20
  12   4   4  732.13   19.50
  12   4   4  719.53   19.30
 -12   4  -4  727.73   23.30
  14  -4   4   85.49   11.60
  14  -4   4   73.29    8.70
  14  -4   4   64.29    8.40
 -14   4  -4   90.99   10.10
  16  -4   4  336.07   19.50
  16  -4   4  280.17   20.20
 -16   4  -4  309.57   17.90
 -18   4  -4   13.20    9.70
 -17  -5   4   18.10    7.40
 -17  -5   4   21.70    7.70
  17  -5  -4   19.40    8.50
 -17  -5   4   19.10    7.20
 -17   5   4    6.20    9.50
 -17   5   4   25.50   10.60
  17   5  -4    4.20    9.50
 -17   5   4    6.00    9.30
 -15  -5   4    5.80    5.00
 -15  -5   4    3.50    4.70
  15  -5  -4    4.20    6.10
  15  -5  -4    5.70    6.20
 -15  -5   4    6.00    4.90
 -15   5   4    9.30    8.30
 -15   5   4   15.20    7.40
  15   5  -4    0.60    6.50
 -15   5   4    1.90    6.00
  13  -5  -4   24.40    5.50
  13  -5  -4   21.90    5.40
 -13  -5   4   27.30    5.10
 -13  -5   4   23.70    4.90
 -13   5   4   27.00    6.10
  13   5  -4   26.20    6.60
 -13   5   4   40.40    7.10
 -13   5   4   23.00    6.90
 -11  -5   4   41.40    5.80
 -11  -5   4   60.09    6.00
 -11  -5   4   44.10    5.40
  11  -5  -4   48.60    6.40
  11  -5  -4   50.09    6.90
  11  -5  -4   46.80    5.40
 -11   5   4   40.20    6.50
 -11   5   4   44.30    5.20
 -11   5   4   48.90    6.20
  11   5  -4   47.40    6.20
 -11   5   4   53.89    7.20
   9  -5  -4   22.40    4.20
   9  -5  -4   20.00    3.60
  -9  -5   4   23.80    3.80
   9  -5  -4   20.10    4.40
  -9  -5   4   22.20    3.60
  -9  -5   4   20.70    3.10
   9  -5  -4   26.00    4.50
  -9   5   4   15.70    4.30
  -9   5   4   22.00    3.50
  -9   5   4   21.80    4.30
  -9   5   4   17.50    4.10
   9   5  -4   20.10    4.00
   7  -5  -4    5.50    2.80
   7  -5  -4    5.10    2.30
   7  -5  -4    3.80    2.20
  -7  -5   4    5.50    2.30
  -7  -5   4    4.90    2.00
   7  -5  -4    4.60    2.30
  -7  -5   4    9.50    2.50
  -7  -5   4    7.00    1.90
   7   5  -4    9.80    2.80
  -7   5   4    7.50    2.30
  -7   5   4    6.00    2.80
  -7   5   4    6.30    2.60
   7   5  -4    4.30    2.70
   7   5  -4    6.90    2.30
   7   5  -4    6.30    1.20
  -7   5   4    2.80    2.30
  -7   5   4    2.00    2.60
  -5  -5   4  372.86   11.50
   5  -5  -4  385.96   11.40
   5  -5  -4  373.46   12.10
   5  -5  -4  368.96   12.60
  -5  -5   4  376.76   11.90
  -5  -5   4  358.26   12.40
   5  -5  -4  389.46   11.90
   5  -5  -4  397.26   11.90
  -5  -5   4  380.66   11.00
   5   5  -4  370.36   11.40
  -5   5   4  387.96   11.00
   5   5  -4  380.96    9.50
   5   5  -4  373.36   11.30
  -5   5   4  375.66   12.30
  -5   5   4  371.76   12.30
  -5   5   4  362.36   11.90
   5   5  -4  380.26   11.60
  -5   5   4  365.46   11.90
   5   5  -4  382.56   11.10
   3  -5  -4  259.97    8.90
  -3  -5   4  262.77    8.80
  -3  -5   4  270.57    8.60
   3  -5  -4  261.87    8.30
  -3  -5   4  260.47    9.30
   3  -5  -4  259.87    8.50
  -3  -5   4  264.47    9.00
   3  -5  -4  275.17    9.30
  -3   5   4  265.17    9.00
  -3   5   4  265.87    8.70
   3   5  -4  259.37    8.60
   3   5  -4  277.57    8.70
   3   5  -4  257.07    8.60
   3   5  -4  253.97    9.00
  -3   5   4  260.07    8.90
  -3   5   4  262.17    7.80
  -3   5   4  260.07    9.30
   1  -5  -4  477.15   13.20
  -1  -5   4  461.45   12.50
   1  -5  -4  456.45   11.90
   1  -5  -4  429.86   11.90
  -1  -5   4  446.76   12.60
  -1  -5   4  447.36   12.80
   1  -5  -4  453.65   12.20
  -1  -5   4  442.16   13.70
  -1   5   4  441.86   10.30
  -1   5   4  451.15   12.10
   1   5  -4  438.26   12.50
   1   5  -4  452.45   10.80
   1   5  -4  444.66   11.90
  -1   5   4  424.46   13.00
  -1   5   4  452.05   11.90
   1   5  -4  447.36   13.60
   1   5  -4  441.96   12.50
   1  -5   4   70.79    4.40
  -1  -5  -4   67.29    3.00
   1  -5   4   66.89    4.10
   1  -5   4   68.29    4.20
  -1  -5  -4   63.29    4.30
   1  -5   4   67.09    5.20
   1  -5   4   72.79    4.50
  -1  -5  -4   69.39    3.40
  -1  -5  -4   70.59    3.50
   1   5   4   65.89    3.20
  -1   5  -4   73.59    5.30
  -1   5  -4   66.29    4.30
  -1   5  -4   72.19    4.40
   1   5   4   60.59    4.30
  -1   5  -4   68.79    4.10
   3  -5   4  286.37   11.20
  -3  -5  -4  276.97    7.30
  -3  -5  -4  289.47    7.80
  -3  -5  -4  277.77    6.90
   3  -5   4  241.08    9.80
   3  -5   4  257.77    9.30
  -3  -5  -4  307.57    9.60
   3  -5   4  292.07   10.00
  -3   5  -4  279.57   10.80
   3   5   4  292.27    7.90
   3   5   4  287.47    7.40
  -3   5  -4  284.97    9.20
   3   5   4  276.87    9.50
  -3   5  -4  289.57    9.90
  -3   5  -4  283.67    9.80
  -5  -5  -4    6.50    2.20
   5  -5   4   -0.50    1.70
   5  -5   4    1.90    2.50
  -5  -5  -4   -1.60    2.80
  -5  -5  -4    4.20    1.20
   5  -5   4   -0.30    2.00
   5  -5   4    1.20    2.00
  -5  -5  -4    1.90    1.00
   5  -5   4   -1.20    2.50
  -5   5  -4   -1.10    2.20
  -5   5  -4    0.70    3.10
   5   5   4    0.90    1.10
  -5   5  -4    2.10    2.20
   5   5   4    5.40    2.10
  -5   5  -4    1.60    1.80
   5   5   4    1.80    1.10
   7  -5   4  193.58    9.30
  -7  -5  -4  205.88    6.50
  -7  -5  -4  202.58    7.60
  -7  -5  -4  201.48    9.20
   7  -5   4  201.88    9.90
   7  -5   4  182.08    9.20
   7  -5   4  208.58   10.60
   7  -5   4  198.48    9.00
   7   5   4  205.98    6.20
  -7   5  -4  193.68    9.30
   7   5   4  203.68    6.10
  -7   5  -4  209.28   10.30
   7   5   4  207.78    6.10
  -7   5  -4  197.58    8.40
  -7   5  -4  206.58    9.20
  -9  -5  -4   19.00    3.90
   9  -5   4   20.50    4.90
  -9  -5  -4   18.10    3.00
   9  -5   4   20.00    4.10
   9  -5   4   11.70    3.60
   9  -5   4   15.70    4.70
  -9   5  -4   17.40    3.90
   9   5   4   16.50    2.40
   9   5   4   19.70    2.40
   9   5   4   18.20    2.70
  11  -5   4  307.37   13.80
 -11  -5  -4  299.37   11.40
  11  -5   4  283.67   14.20
  11  -5   4  276.77    9.20
  11  -5   4  277.67   12.90
 -11   5  -4  303.67   13.70
  11   5   4  279.67   10.00
  11   5   4  280.27    9.60
  11   5   4  300.17    9.30
  13  -5   4   18.10    6.10
  13  -5   4    2.70    5.40
  13  -5   4   13.00    6.30
 -13   5  -4   23.30    6.40
  15  -5   4  170.58   15.70
  15  -5   4  141.89   17.60
  15  -5   4  161.48   14.30
 -15   5  -4  170.68   14.00
  17  -5   4    6.00    9.80
  17  -5   4   19.70   12.20
 -17   5  -4   24.30    9.80
  16  -6  -4   11.80    8.50
 -16  -6   4    8.80    6.20
 -16  -6   4   19.40    5.80
  16  -6  -4   13.70    7.90
 -16  -6   4   14.30    6.30
 -16   6   4   24.50    9.00
  16   6  -4    9.20    9.30
 -16   6   4   26.10    9.40
 -16   6   4   10.70   10.00
 -14  -6   4  548.85   18.40
 -14  -6   4  552.74   18.20
  14  -6  -4  509.35   20.10
 -14  -6   4  566.14   19.20
  14  -6  -4  551.84   20.90
 -14   6   4  543.95   22.00
 -14   6   4  541.55   23.50
 -14   6   4  568.74   22.30
  14   6  -4  537.65   21.80
 -12  -6   4   13.80    3.90
 -12  -6   4   12.20    3.60
 -12  -6   4   18.40    4.50
  12  -6  -4   18.50    5.50
 -12   6   4    6.30    4.80
 -12   6   4   12.90    6.70
 -12   6   4   19.10    6.30
  12   6  -4   10.20    5.20
 -10  -6   4  209.78    9.20
 -10  -6   4  198.08    9.40
  10  -6  -4  195.38    9.60
  10  -6  -4  204.48   11.00
 -10  -6   4  212.98    8.90
 -10  -6   4  196.48    8.80
  10  -6  -4  201.18   10.90
 -10   6   4  205.58   11.30
 -10   6   4  220.08    9.40
  10   6  -4  207.88   11.00
 -10   6   4  215.18   11.40
 -10   6   4  213.88   11.80
  -8  -6   4   94.59    5.40
  -8  -6   4   98.39    5.70
  -8  -6   4   91.79    4.60
   8  -6  -4   85.69    6.10
  -8  -6   4   93.39    6.00
   8  -6  -4   65.59    6.40
   8  -6  -4   91.89    6.80
   8  -6  -4   91.49    7.20
  -8   6   4   90.29    7.80
   8   6  -4   93.19    7.00
  -8   6   4   93.29    7.10
   8   6  -4   90.29    4.50
  -8   6   4   96.69    7.40
  -8   6   4   75.19    6.40
  -8   6   4   88.99    6.20
   6  -6  -4   97.39    5.60
  -6  -6   4   93.69    5.70
  -6  -6   4   97.99    5.30
   6  -6  -4  100.69    6.30
  -6  -6   4   96.89    5.50
   6  -6  -4   93.49    6.00
   6  -6  -4   97.29    6.00
   6  -6  -4  103.89    7.00
  -6  -6   4   84.49    5.40
   6   6  -4   89.39    5.40
  -6   6   4   87.69    6.30
  -6   6   4   92.19    6.50
  -6   6   4   87.49    5.40
  -6   6   4  100.49    6.20
  -6   6   4   94.29    6.40
   6   6  -4  104.09    6.10
   6   6  -4  105.99    6.30
   6   6  -4   87.99    5.70
   4  -6  -4   44.60    3.80
   4  -6  -4   49.99    4.70
  -4  -6   4   50.69    4.50
  -4  -6   4   49.50    3.90
   4  -6  -4   52.29    4.20
  -4  -6   4   48.00    4.10
   4  -6  -4   55.59    4.90
   4  -6  -4   41.00    4.70
  -4  -6   4   47.80    4.10
  -4   6   4   51.29    4.70
   4   6  -4   45.90    4.00
  -4   6   4   51.39    4.30
  -4   6   4   53.69    4.60
  -4   6   4   49.50    3.70
   4   6  -4   49.00    4.20
   4   6  -4   46.70    2.40
   4   6  -4   46.70    3.90
  -4   6   4   46.20    4.40
   4   6  -4   54.79    4.60
  -2  -6   4    2.90    1.70
  -2  -6   4    5.60    2.00
  -2  -6   4    5.30    2.30
   2  -6  -4    6.30    2.40
  -2  -6   4    3.00    1.80
   2  -6  -4    6.40    1.60
   2  -6  -4    4.60    1.50
   2  -6  -4    4.80    2.50
   2  -6  -4    5.30    1.50
   2   6  -4    2.70    1.70
  -2   6   4    9.60    2.60
  -2   6   4   11.10    2.20
   2   6  -4    6.70    2.00
   2   6  -4    4.20    2.30
   2   6  -4    3.90    1.40
  -2   6   4    5.90    1.30
  -2   6   4    6.80    1.90
  -2   6   4    3.90    1.80
   0  -6  -4   51.49    3.00
   0  -6  -4   50.59    3.20
   0  -6   4   57.09    4.10
   0  -6   4   49.60    3.90
   0  -6   4   52.29    4.20
   0  -6   4   57.19    5.20
   0  -6  -4   46.20    4.30
   0  -6  -4   45.60    3.10
   0  -6   4   59.49    4.10
   0   6   4   45.50    4.30
   0   6   4   50.49    3.30
   0   6  -4   51.59    5.00
   0   6  -4   58.19    4.20
   0   6  -4   49.50    4.10
   0   6  -4   51.79    3.70
   0   6   4   50.19    3.10
   2  -6   4   47.40    4.30
   2  -6   4   54.59    4.20
   2  -6   4   52.59    4.10
  -2  -6  -4   50.09    2.80
  -2  -6  -4   55.39    4.50
  -2  -6  -4   51.09    2.50
  -2  -6  -4   49.80    2.90
   2  -6   4   47.80    4.80
   2  -6   4   52.69    5.30
   2   6   4   54.49    4.50
  -2   6  -4   52.19    3.90
   2   6   4   50.89    2.60
   2   6   4   52.59    2.60
  -2   6  -4   51.49    4.60
  -2   6  -4   52.09    5.60
   2   6   4   53.09    2.50
  -2   6  -4   49.50    4.30
   4  -6   4 1007.20   26.40
   4  -6   4  924.01   26.90
   4  -6   4  960.40   25.10
  -4  -6  -4  999.70   24.70
  -4  -6  -4 1023.30   21.20
   4  -6   4  956.90   25.40
   4  -6   4 1008.90   25.90
  -4   6  -4  975.60   24.20
  -4   6  -4  993.50   25.40
  -4   6  -4 1002.60   25.20
  -4   6  -4  989.80   26.70
  -6  -6  -4  719.93   16.10
   6  -6   4  701.33   21.00
   6  -6   4  685.03   19.90
  -6  -6  -4  699.83   21.20
   6  -6   4  721.83   20.50
  -6  -6  -4  690.03   18.70
   6  -6   4  714.03   22.00
   6  -6   4  705.43   20.40
  -6   6  -4  703.43   21.80
  -6   6  -4  693.83   20.20
  -6   6  -4  706.33   19.10
   8  -6   4  432.46   15.00
  -8  -6  -4  433.86   14.60
   8  -6   4  425.76   16.10
  -8  -6  -4  444.76   13.20
   8  -6   4  418.66   16.60
   8  -6   4  407.76   15.10
  -8   6  -4  418.96   14.00
  -8   6  -4  414.26   15.40
 -10  -6  -4   54.29    5.00
  10  -6   4   58.99    7.80
  10  -6   4   60.29    7.20
  10  -6   4   56.19    5.30
 -10  -6  -4   50.49    5.70
  10  -6   4   58.69    7.80
  10   6   4   49.50    4.30
 -10   6  -4   56.39    6.30
  10   6   4   55.79    4.10
 -10   6  -4   43.90    6.20
  12  -6   4    1.20    4.70
  12  -6   4    9.40    6.20
  12  -6   4   -3.30    5.00
 -12   6  -4    1.30    4.50
  14  -6   4   10.70    7.20
  14  -6   4    7.00    6.80
  14  -6   4    0.40    7.50
 -14   6  -4    1.50    6.50
  16  -6   4   -0.20    8.90
  16  -6   4   -6.10    9.90
 -16   6  -4    3.10    8.40
 -17  -7   4    6.10    6.70
  17  -7  -4    7.00   11.80
  17  -7  -4   -5.60    8.90
 -17  -7   4   25.70    6.90
  17   7  -4    5.00   10.80
 -17   7   4   11.20   13.40
 -17   7   4   11.10   10.40
 -17   7   4    2.00   11.70
  15  -7  -4   34.00    8.10
 -15  -7   4   21.90    5.60
  15  -7  -4   14.70    9.90
 -15  -7   4   20.60    6.10
 -15  -7   4   23.20    6.20
 -15   7   4   17.10    9.40
  15   7  -4   11.60    8.10
 -15   7   4   18.60    8.60
 -15   7   4   14.10   10.50
 -13  -7   4    7.30    4.20
 -13  -7   4   13.30    4.20
  13  -7  -4    6.70    5.70
  13  -7  -4    4.90    6.60
 -13  -7   4    6.50    4.30
  13   7  -4   14.20    6.50
 -13   7   4    8.70    6.10
 -13   7   4   11.50    7.70
 -11  -7   4  194.08    9.00
  11  -7  -4  183.98   11.70
 -11  -7   4  195.58    9.30
  11  -7  -4  194.18   12.10
  11  -7  -4  181.98   12.00
  11   7  -4  208.08   12.00
 -11   7   4  215.28   12.60
 -11   7   4  208.68   12.20
 -11   7   4  222.18   13.70
  -9  -7   4  171.88    7.80
  -9  -7   4  182.08    7.80
   9  -7  -4  177.98   10.00
  -9  -7   4  183.18    8.50
   9  -7  -4  175.78    9.00
   9  -7  -4  179.28    9.90
   9  -7  -4  172.38   10.50
  -9  -7   4  179.48    6.40
  -9   7   4  171.08   10.30
  -9   7   4  170.38   11.10
   9   7  -4  177.88    9.90
  -9   7   4  171.58    8.90
  -9   7   4  170.68   10.20
  -7  -7   4 1415.06   32.90
   7  -7  -4 1400.56   36.10
  -7  -7   4 1400.16   33.70
  -7  -7   4 1379.26   32.50
   7  -7  -4 1398.06   34.30
   7  -7  -4 1347.97   34.90
  -7  -7   4 1408.86   32.80
   7  -7  -4 1378.36   34.10
   7  -7  -4 1421.46   33.90
   7   7  -4 1446.96   38.60
  -7   7   4 1426.76   35.50
  -7   7   4 1335.97   32.70
   7   7  -4 1363.46   34.10
   7   7  -4 1418.76   32.10
  -7   7   4 1381.16   34.40
  -7   7   4 1365.36   34.70
  -7   7   4 1363.16   35.40
   5  -7  -4    5.30    2.30
   5  -7  -4    1.00    3.30
  -5  -7   4    3.20    2.10
   5  -7  -4    7.20    2.50
  -5  -7   4    7.00    2.40
   5  -7  -4    1.80    2.60
   5  -7  -4    1.00    2.20
  -5  -7   4   -1.90    2.30
  -5  -7   4    1.60    2.10
   5   7  -4    2.30    2.30
   5   7  -4    3.40    2.40
   5   7  -4    1.20    2.20
  -5   7   4    1.70    2.40
  -5   7   4    5.30    2.40
   5   7  -4    2.30    2.50
  -5   7   4    4.20    2.60
  -5   7   4    1.80    2.30
  -5   7   4    8.60    2.90
  -3  -7   4 3567.64   78.19
   3  -7  -4 3513.95   76.79
  -3  -7   4 3636.74   76.29
  -3  -7   4 3563.04   76.59
   3  -7  -4 3529.65   79.09
   3  -7  -4 3590.64   75.99
  -3  -7   4 3458.95   76.79
   3  -7  -4 3592.54   77.79
   3  -7  -4 3581.24   76.39
  -3   7   4 3606.94   74.89
   3   7  -4 3408.76   76.09
   3   7  -4 3498.55   73.39
   3   7  -4 3541.85   77.49
  -3   7   4 3587.34   76.49
   3   7  -4 3619.64   76.09
   3   7  -4 3534.25   76.09
  -3   7   4 3549.74   76.89
  -3   7   4 3484.85   78.09
  -1  -7   4  213.98    9.60
   1  -7  -4  205.38    8.60
  -1  -7   4  202.48    8.10
  -1  -7   4  205.78    8.00
   1  -7  -4  195.18    6.90
   1  -7  -4  198.88    7.20
   1  -7  -4  197.58    6.80
  -1  -7   4  208.18    7.70
   1  -7  -4  190.88    9.00
  -1  -7   4  196.38    8.00
  -1   7   4  212.48    7.30
   1   7  -4  201.68    7.80
  -1   7   4  197.18    7.00
   1   7  -4  211.18    9.30
  -1   7   4  189.48    8.70
   1   7  -4  204.48    6.90
   1   7  -4  201.78    7.70
  -1   7   4  203.78    7.40
  -1  -7  -4   18.10    2.40
   1  -7   4   19.80    2.90
  -1  -7  -4   22.80    2.40
   1  -7   4   22.60    3.30
   1  -7   4   14.60    3.30
   1  -7   4   20.80    3.00
   1  -7   4   20.60    3.70
  -1  -7  -4   21.60    2.20
  -1  -7  -4   26.10    3.90
   1   7   4   19.80    3.40
   1   7   4   20.70    2.20
  -1   7  -4   31.20    4.20
  -1   7  -4   16.60    3.80
  -1   7  -4   25.40    3.20
   1   7   4   21.40    2.40
   1   7   4   22.30    2.40
  -1   7  -4   23.90    3.60
   3  -7   4    5.10    2.30
  -3  -7  -4    7.60    2.90
  -3  -7  -4    5.10    1.00
  -3  -7  -4    5.00    1.10
   3  -7   4    2.20    2.30
   3  -7   4    5.70    2.60
   3  -7   4    1.90    2.90
  -3  -7  -4    4.20    1.40
   3  -7   4    2.40    2.70
  -3   7  -4    7.00    2.70
  -3   7  -4    3.30    2.30
  -3   7  -4    6.30    2.90
  -3   7  -4    4.60    3.80
  -5  -7  -4  388.56   15.40
   5  -7   4  407.46   15.80
   5  -7   4  412.56   14.70
  -5  -7  -4  416.76   13.30
   5  -7   4  430.36   14.00
   5  -7   4  428.26   14.30
   5  -7   4  422.46   14.20
  -5   7  -4  415.36   13.10
  -5   7  -4  391.26   14.00
   7  -7   4  795.42   23.80
   7  -7   4  772.52   22.80
   7  -7   4  785.42   22.90
  -7  -7  -4  758.42   20.80
   7  -7   4  785.22   22.50
   7  -7   4  757.52   24.50
  -7   7  -4  757.52   21.10
   9  -7   4   74.59    8.10
  -9  -7  -4   65.09    6.10
   9  -7   4   74.19    9.80
  -9  -7  -4   55.19    7.50
   9  -7   4   68.79    9.20
   9  -7   4   69.89    7.50
  -9   7  -4   70.09    7.90
  -9   7  -4   68.99    6.80
 -11  -7  -4   31.20    4.40
  11  -7   4   38.50    7.00
 -11  -7  -4   34.00    5.90
 -11  -7  -4   36.40    4.60
  11  -7   4   34.80    7.60
  11  -7   4   29.40    6.00
 -11   7  -4   21.10    5.30
 -11   7  -4   32.60    6.70
  13  -7   4  537.95   21.30
  13  -7   4  501.55   22.60
  13  -7   4  521.95   21.70
 -13   7  -4  508.35   19.10
 -13   7  -4  526.95   21.60
  15  -7   4  788.62   31.40
  15  -7   4  793.52   28.80
  15  -7   4  790.42   30.00
 -15   7  -4  807.32   29.50
 -15   7  -4  800.12   26.60
  16  -8  -4  347.77   22.70
  16  -8  -4  331.67   24.00
  16  -8  -4  345.97   21.30
 -16  -8   4  359.66   15.50
  16  -8  -4  394.86   20.40
 -16  -8   4  338.07   16.60
  16   8  -4  383.46   23.10
 -16   8   4  350.36   22.60
 -16   8   4  354.86   23.70
  14  -8  -4  540.45   21.00
  14  -8  -4  540.85   23.20
 -14  -8   4  520.35   17.80
 -14  -8   4  516.75   17.20
 -14  -8   4  534.65   18.50
 -14   8   4  550.94   25.80
  14   8  -4  551.24   23.50
 -14   8   4  541.05   23.50
 -14   8   4  533.05   23.60
 -12  -8   4  175.98    9.40
 -12  -8   4  191.88   10.00
 -12   8   4  196.48   13.80
 -12   8   4  182.58   15.00
 -12   8   4  217.38   14.40
  12   8  -4  175.48   13.00
  10  -8  -4   -0.30    4.30
 -10  -8   4    0.30    2.70
  10  -8  -4   -2.80    4.10
 -10  -8   4    4.70    3.20
 -10   8   4   -3.90    4.70
  10   8  -4   -2.30    4.20
 -10   8   4    0.40    4.30
 -10   8   4    1.00    4.80
  -8  -8   4  562.64   15.70
   8  -8  -4  535.75   17.10
   8  -8  -4  571.34   18.60
  -8  -8   4  567.44   15.90
  -8  -8   4  547.65   15.90
   8  -8  -4  538.35   17.80
  -8  -8   4  567.34   16.70
   8  -8  -4  550.04   19.60
   8   8  -4  577.14   15.40
   8   8  -4  563.64   18.10
  -8   8   4  542.45   18.40
  -8   8   4  543.85   17.30
  -8   8   4  560.24   19.00
  -6  -8   4  423.86   12.80
   6  -8  -4  431.36   13.70
  -6  -8   4  432.66   13.80
  -6  -8   4  427.16   13.80
   6  -8  -4  427.86   16.10
   6  -8  -4  411.36   14.40
   6  -8  -4  421.76   13.90
  -6  -8   4  417.66   12.90
  -6   8   4  407.76   14.40
  -6   8   4  416.86   15.00
   6   8  -4  428.46   13.80
   6   8  -4  434.56   13.60
  -6   8   4  426.16   12.80
  -6   8   4  427.36   14.90
   4  -8  -4 1006.30   24.90
  -4  -8   4 1005.20   24.70
   4  -8  -4  973.70   27.90
  -4  -8   4  993.60   26.60
  -4  -8   4 1013.60   25.20
   4  -8  -4  985.00   25.80
  -4  -8   4  991.60   25.40
   4   8  -4 1025.10   26.00
   4   8  -4 1020.40   24.50
  -4   8   4 1001.50   25.90
  -4   8   4 1013.30   25.60
   4   8  -4  965.70   24.40
  -4   8   4 1042.50   27.20
  -4   8   4 1033.80   23.20
   2  -8  -4   15.50    2.50
  -2  -8   4   11.50    2.80
  -2  -8   4   19.20    3.00
  -2  -8   4   17.10    3.70
   2  -8  -4   12.50    2.50
  -2  -8   4   13.60    2.80
   2  -8  -4   19.90    4.20
   2  -8  -4   11.80    2.30
  -2  -8   4   14.10    2.90
   2   8  -4   12.10    3.70
  -2   8   4   14.50    2.90
   2   8  -4   16.80    1.80
   2   8  -4   14.70    3.00
   2   8  -4   14.80    1.80
  -2   8   4   14.20    2.60
  -2   8   4   15.20    2.90
   0  -8   4  679.93   19.10
   0  -8  -4  711.73   17.10
   0  -8   4  720.33   18.70
   0  -8  -4  698.33   20.70
   0  -8  -4  685.13   16.90
   0  -8   4  695.23   21.10
   0  -8  -4  729.73   17.60
   0  -8   4  688.33   18.80
   0  -8   4  701.83   19.20
   0   8  -4  698.63   17.20
   0   8  -4  691.33   20.70
   0   8   4  656.03   18.10
   0   8   4  667.53   19.80
   0   8  -4  710.53   16.80
   0   8  -4  678.53   18.80
  -2  -8  -4 1983.60   42.90
  -2  -8  -4 1973.60   47.20
   2  -8   4 1967.60   46.20
  -2  -8  -4 1959.50   42.30
   2  -8   4 2012.10   48.70
   2  -8   4 2044.80   47.30
  -2  -8  -4 1988.40   42.10
   2  -8   4 1986.80   46.30
   2  -8   4 1947.21   45.70
  -2   8  -4 2063.19   43.80
  -2   8  -4 1898.61   44.30
   2   8   4 1954.30   41.80
   4  -8   4  117.99    7.60
   4  -8   4  120.99    7.80
  -4  -8  -4  115.69    7.30
   4  -8   4  116.19    7.10
   4  -8   4  123.29    7.40
   4  -8   4  113.89    8.60
  -4   8  -4  118.59    6.70
  -4   8  -4  112.59    6.60
  -6  -8  -4  116.79    7.50
   6  -8   4  124.69    8.30
   6  -8   4  119.79    8.40
   6  -8   4  115.99    7.90
   6  -8   4  121.59    9.70
   6  -8   4  132.09    9.30
  -6   8  -4  121.29    7.30
   8  -8   4  301.77   14.40
  -8  -8  -4  267.17   11.00
   8  -8   4  276.67   14.50
   8  -8   4  268.27   12.40
   8  -8   4  256.57   12.60
  -8   8  -4  282.97   11.60
 -10  -8  -4  276.77   11.00
  10  -8   4  273.07   11.70
 -10  -8  -4  259.87   12.90
  10  -8   4  285.07   14.40
 -10   8  -4  268.17   14.50
  12  -8   4  366.46   18.00
  12  -8   4  348.47   16.90
 -12  -8  -4  360.66   12.60
  12  -8   4  337.17   19.20
 -12   8  -4  344.87   15.50
 -12   8  -4  357.86   17.60
  14  -8   4   40.70   10.80
  14  -8   4   18.20    8.00
  14  -8   4   26.30    8.80
 -14   8  -4   35.80    8.20
 -14   8  -4   39.00   10.00
  16  -8   4  220.68   20.10
  16  -8   4  253.87   24.40
 -16   8  -4  272.67   20.40
 -16   8  -4  237.58   17.30
  15  -9  -4   31.70   11.40
  15  -9  -4   34.40    9.00
  15  -9  -4   57.19   11.70
 -15  -9   4   34.10    6.80
  15  -9  -4   45.70   10.40
 -15  -9   4   44.50    6.50
  15   9  -4   20.70   10.30
 -15   9   4   53.29   11.30
 -15   9   4   47.80   12.80
 -13  -9   4   23.10    4.80
  13  -9  -4   19.20    6.80
 -13  -9   4   18.90    5.20
  13  -9  -4   32.70    8.80
  13  -9  -4   31.10    7.20
 -13   9   4   26.40   10.90
 -13   9   4    9.60    8.30
  13   9  -4   22.10    8.40
 -13   9   4    7.10    7.40
 -11  -9   4  586.84   16.90
  11  -9  -4  576.14   22.50
 -11  -9   4  560.34   16.40
 -11  -9   4  558.64   17.50
 -11   9   4  576.34   22.10
  11   9  -4  527.85   23.30
 -11   9   4  589.54   22.00
 -11   9   4  565.74   23.00
  -9  -9   4 1369.26   32.20
   9  -9  -4 1379.66   38.10
  -9  -9   4 1353.96   32.80
   9  -9  -4 1313.77   36.20
  -9  -9   4 1367.66   32.00
   9  -9  -4 1337.87   35.50
  -9   9   4 1330.97   37.40
  -9   9   4 1327.47   36.20
   9   9  -4 1373.66   35.60
  -9   9   4 1313.07   36.50
   7  -9  -4  305.97   14.80
  -7  -9   4  317.17   11.30
  -7  -9   4  326.57   10.90
   7  -9  -4  312.77   12.70
  -7  -9   4  338.77   12.30
   7  -9  -4  318.57   12.30
  -7  -9   4  326.47   11.70
  -7   9   4  321.57   13.60
  -7   9   4  320.77   11.60
   7   9  -4  310.97   12.00
  -7   9   4  316.87   13.80
   7   9  -4  337.87   12.80
  -7   9   4  336.27   13.90
  -5  -9   4  289.57   11.00
   5  -9  -4  311.87   11.30
  -5  -9   4  306.77   10.70
   5  -9  -4  290.97   11.50
  -5  -9   4  290.67   10.50
   5  -9  -4  324.77   11.20
  -5  -9   4  293.37   12.00
   5  -9  -4  284.07   13.50
  -5   9   4  283.27   11.90
  -5   9   4  300.67   12.10
   5   9  -4  316.47   11.00
  -5   9   4  314.27    9.50
   5   9  -4  292.07   11.90
   3  -9  -4  924.61   23.30
  -3  -9   4  917.21   24.10
  -3  -9   4  904.81   25.90
  -3  -9   4  954.50   23.90
  -3  -9   4  931.41   23.50
   3  -9  -4  896.61   26.90
  -3  -9   4  944.31   23.80
   3  -9  -4  949.80   24.20
   3  -9  -4  944.81   23.60
   3   9  -4  898.11   25.40
  -3   9   4  958.90   23.90
  -3   9   4  922.61   24.10
  -3   9   4  935.21   24.20
  -1  -9   4 1426.46   37.80
   1  -9  -4 1499.05   38.30
  -1  -9   4 1301.77   34.90
   1  -9  -4 1479.85   33.70
  -1  -9   4 1499.15   35.70
   1  -9  -4 1489.45   34.30
   1  -9  -4 1487.85   33.60
  -1  -9   4 1444.76   34.70
  -1  -9   4 1467.55   35.20
   1   9  -4 1643.64   42.70
  -1   9   4 1461.55   34.00
   1   9  -4 1499.65   31.30
  -1   9   4 1521.85   34.00
   1  -9   4  438.36   16.40
   1  -9   4  413.06   13.90
  -1  -9  -4  428.36   11.30
  -1  -9  -4  429.56   11.10
   1  -9   4  418.96   13.40
  -1  -9  -4  421.76   15.50
   1  -9   4  427.36   13.80
   1  -9   4  415.86   14.10
   1  -9   4  411.16   14.50
  -1   9  -4  410.96   12.00
   1   9   4  423.86   11.00
  -1   9  -4  427.96   11.50
  -3  -9  -4  379.66   14.10
  -3  -9  -4  372.26    9.40
   3  -9   4  374.76   13.50
   3  -9   4  379.36   13.40
   3  -9   4  362.16   15.50
  -3  -9  -4  375.26    9.40
   3  -9   4  343.27   13.60
  -3   9  -4  378.56   12.10
  -3   9  -4  370.76   11.60
  -5  -9  -4  454.95   15.70
   5  -9   4  438.46   15.50
   5  -9   4  435.66   17.80
   5  -9   4  443.16   15.60
   5  -9   4  445.86   16.50
   5  -9   4  453.65   15.90
  -5   9  -4  446.36   14.40
  -5   9  -4  431.46   14.10
   7  -9   4 1490.05   41.40
  -7  -9  -4 1480.15   37.20
   7  -9   4 1468.15   38.30
   7  -9   4 1490.25   38.90
   7  -9   4 1538.95   40.10
  -7   9  -4 1474.95   36.60
   9  -9   4  750.12   24.30
   9  -9   4  716.23   25.70
  -9  -9  -4  765.32   22.00
   9  -9   4  771.82   24.80
   9  -9   4  776.42   27.10
  -9   9  -4  779.22   22.70
  11  -9   4  355.26   19.40
 -11  -9  -4  364.66   13.40
  11  -9   4  359.96   17.10
 -11   9  -4  361.86   15.80
  13  -9   4  978.20   32.70
  13  -9   4  944.81   31.50
  13  -9   4  925.51   34.20
 -13   9  -4  946.31   29.50
  15  -9   4  527.75   29.40
  15  -9   4  556.24   26.00
  15  -9   4  542.55   27.40
 -15   9  -4  560.14   23.70
  14 -10  -4 1597.04   47.40
  14 -10  -4 1537.25   47.40
  14 -10  -4 1615.64   45.80
  14 -10  -4 1608.34   43.30
 -14 -10   4 1629.54   39.70
 -14 -10   4 1555.94   37.20
 -14  10   4 1569.24   46.80
  14  10  -4 1526.95   46.10
 -12 -10   4  721.33   21.20
  12 -10  -4  716.13   27.90
 -12 -10   4  734.13   19.70
  12 -10  -4  747.63   26.90
  12  10  -4  728.03   26.40
 -12  10   4  759.82   28.60
 -12  10   4  727.43   27.40
  10 -10  -4   12.00    6.50
 -10 -10   4   12.60    3.90
 -10 -10   4    9.20    3.20
 -10 -10   4   14.00    3.80
 -10  10   4    5.30    6.10
 -10  10   4   17.20    7.10
  10  10  -4    2.10    5.90
   8 -10  -4 1501.65   39.40
  -8 -10   4 1548.35   37.30
  -8 -10   4 1476.25   37.20
   8 -10  -4 1567.54   42.90
  -8 -10   4 1529.65   37.90
  -8 -10   4 1558.84   35.90
  -8  10   4 1616.74   40.70
   8  10  -4 1557.34   39.30
  -8  10   4 1595.24   41.40
  -8  10   4 1620.24   40.90
  -8  10   4 1475.55   36.80
   6 -10  -4  617.04   18.30
   6 -10  -4  582.94   18.50
  -6 -10   4  574.54   18.80
  -6 -10   4  566.04   17.20
   6 -10  -4  582.24   18.90
  -6 -10   4  598.54   17.80
  -6 -10   4  580.34   16.60
   6 -10  -4  601.94   21.70
  -6 -10   4  622.84   17.00
  -6  10   4  591.84   19.40
  -6  10   4  593.84   19.30
   6  10  -4  581.84   18.60
  -6  10   4  607.54   16.00
  -6  10   4  591.84   19.80
  -6  10   4  603.94   15.90
   4 -10  -4  367.36   15.90
  -4 -10   4  366.96   14.60
  -4 -10   4  348.17   12.30
   4 -10  -4  370.36   12.50
  -4 -10   4  368.96   12.40
   4 -10  -4  356.66   12.70
  -4 -10   4  353.16   12.60
   4 -10  -4  362.66   13.10
  -4 -10   4  372.76   12.20
  -4  10   4  371.26   13.50
   4  10  -4  393.76   17.40
  -4  10   4  359.66   13.50
  -4  10   4  378.46   13.30
   2 -10  -4  542.95   15.40
  -2 -10   4  553.74   16.70
  -2 -10   4  561.24   16.40
   2 -10  -4  563.54   15.50
   2 -10  -4  541.05   16.00
   2 -10  -4  550.94   19.70
  -2 -10   4  535.75   18.90
  -2 -10   4  549.85   16.60
  -2 -10   4  543.75   16.20
  -2  10   4  559.94   16.10
  -2  10   4  569.94   16.30
  -2  10   4  546.25   15.80
   0 -10  -4  729.33   18.20
   0 -10  -4  727.63   18.00
   0 -10   4  695.53   20.50
   0 -10   4  739.23   23.50
   0 -10  -4  728.43   23.00
   0 -10   4  725.13   20.70
   0 -10   4  707.33   20.10
   0 -10  -4  725.43   18.00
   0 -10  -4  750.32   18.70
   0 -10   4  714.93   21.20
   0  10   4  718.33   18.40
  -2 -10  -4 2504.05   53.89
  -2 -10  -4 2506.65   53.69
   2 -10   4 2523.55   57.69
   2 -10   4 2475.95   58.89
   2 -10   4 2543.95   58.29
   2 -10   4 2566.14   57.89
  -2 -10  -4 2479.55   53.79
   2 -10   4 2479.95   61.39
  -2 -10  -4 2555.54   60.19
  -2  10  -4 2602.74   54.39
  -2  10  -4 2457.25   55.09
   4 -10   4 1023.00   28.20
   4 -10   4 1005.90   30.80
  -4 -10  -4 1006.30   22.30
   4 -10   4 1008.20   27.50
   4 -10   4 1022.10   27.70
  -4 -10  -4  985.80   28.40
  -4  10  -4 1003.10   25.20
  -4  10  -4 1036.20   25.90
   6 -10   4   17.50    4.70
   6 -10   4    3.60    5.30
   6 -10   4   -2.10    5.30
   6 -10   4    4.70    7.80
  -6 -10  -4   10.40    4.50
  -6  10  -4   15.30    4.40
   8 -10   4  885.51   26.90
   8 -10   4  875.51   29.90
  -8 -10  -4  859.41   25.00
  -8  10  -4  859.91   24.70
  10 -10   4 1142.69   37.40
  10 -10   4 1156.88   34.50
  10 -10   4 1197.78   34.30
 -10 -10  -4 1149.98   30.90
 -10  10  -4 1161.98   31.90
  12 -10   4  282.07   18.10
  12 -10   4  298.87   18.20
  12 -10   4  325.87   21.40
 -12  10  -4  278.67   16.00
  14 -10   4    7.10   11.40
  14 -10   4   -6.30    9.50
  14 -10   4   -6.60    9.50
 -14  10  -4   15.00    8.60
 -13 -11   4   55.79    7.10
  13 -11  -4   56.69   10.30
  13 -11  -4   26.20   10.50
  13 -11  -4   52.49    9.00
 -13 -11   4   51.99    6.30
  13 -11  -4   43.70   11.70
 -13  11   4   30.10   10.30
  11 -11  -4  666.23   25.90
  11 -11  -4  688.03   24.80
  11 -11  -4  687.43   27.90
 -11 -11   4  693.73   19.70
 -11  11   4  654.13   25.70
  -9 -11   4 1394.06   32.40
   9 -11  -4 1407.76   38.90
   9 -11  -4 1419.46   38.20
  -9 -11   4 1382.26   35.20
  -9 -11   4 1377.26   34.10
   9 -11  -4 1398.36   41.50
  -9  11   4 1450.05   39.40
  -7 -11   4  151.08    8.60
  -7 -11   4  152.58    7.50
  -7 -11   4  146.99   10.20
   7 -11  -4  174.38   13.40
  -7  11   4  137.79   11.80
  -7  11   4  159.48   11.20
  -7  11   4  144.59    8.10
   5 -11  -4  217.58   13.60
  -5 -11   4  220.28   12.00
  -5 -11   4  216.98    9.30
   5 -11  -4  189.78   10.50
  -5 -11   4  212.48    9.20
   5 -11  -4  221.58   10.50
  -5 -11   4  202.18   10.00
   5 -11  -4  217.78   10.10
  -5  11   4  236.28   15.40
  -5  11   4  213.28   11.30
   3 -11  -4 1201.78   30.20
   3 -11  -4 1185.38   29.30
   3 -11  -4 1085.09   42.70
   3 -11  -4 1184.68   29.30
  -3 -11   4 1156.38   33.00
  -3 -11   4 1179.88   29.70
   3 -11  -4 1225.98   29.70
  -3 -11   4 1216.28   29.80
  -3 -11   4 1162.38   30.60
  -3  11   4 1189.38   30.10
  -3  11   4 1213.28   30.40
  -1 -11   4 1635.94   40.50
   1 -11  -4 1642.04   38.20
  -1 -11   4 1568.64   39.30
   1 -11  -4 1647.84   37.70
  -1 -11   4 1682.43   43.40
   1 -11  -4 1639.54   38.20
   1 -11  -4 1651.83   43.50
   1 -11  -4 1641.84   37.50
   1 -11  -4 1628.44   37.30
  -1 -11   4 1626.94   39.70
  -1 -11   4 1602.94   39.10
  -1  11   4 1657.33   37.80
   1 -11   4  118.39    7.70
  -1 -11  -4  112.09    5.10
   1 -11   4  118.39    8.60
   1 -11   4  122.89    8.00
  -1 -11  -4  122.29    5.70
  -1 -11  -4  112.99    6.00
  -1 -11  -4  117.59    5.00
  -1 -11  -4  130.89   10.00
   1 -11   4  132.29   10.50
  -1 -11  -4  124.89    5.90
   1 -11   4  132.59    8.40
   1  11   4  118.49    5.20
   3 -11   4  276.47   21.80
   3 -11   4  341.27   13.60
  -3 -11  -4  308.27   10.40
   3 -11   4  315.67   13.90
  -3 -11  -4  282.47   14.00
  -3  11  -4  326.27   10.50
  -3  11  -4  302.77   10.90
   5 -11   4  550.34   22.10
   5 -11   4  515.25   19.10
   5 -11   4  539.65   19.10
   5 -11   4  556.74   18.80
  -5 -11  -4  551.04   19.60
  -5  11  -4  532.45   16.60
  -5  11  -4  547.15   17.00
   7 -11   4 1298.87   39.20
   7 -11   4 1246.48   35.60
  -7 -11  -4 1269.07   34.60
   7 -11   4 1276.47   35.20
  -7  11  -4 1291.57   33.00
  -9 -11  -4  416.66   16.70
   9 -11   4  436.16   19.00
   9 -11   4  406.26   19.00
   9 -11   4  438.36   22.20
  -9  11  -4  450.65   17.20
  11 -11   4  209.48   16.60
  11 -11   4  216.98   16.90
  11 -11   4  198.68   19.20
 -11  11  -4  221.48   14.60
  13 -11   4  918.01   36.70
  13 -11   4  873.11   32.40
  13 -11   4  880.31   33.40
 -13  11  -4  887.81   29.80
  12 -12  -4  240.88   17.90
  12 -12  -4  285.27   19.80
  12 -12  -4  277.27   22.50
 -12 -12   4  270.97   11.70
 -12  12   4  245.18   20.70
 -10 -12   4   41.00    4.20
 -10 -12   4   50.69    7.00
  10 -12  -4   34.10    8.30
  10 -12  -4   39.30    8.20
  10 -12  -4   48.40   11.30
 -10  12   4   34.10    9.10
  -8 -12   4  115.09   10.70
  -8 -12   4  106.29    6.30
   8 -12  -4   99.89   10.50
  -8 -12   4  100.59    7.80
   8 -12  -4   88.89   10.70
   8 -12  -4   93.89   11.70
  -8  12   4  109.29   12.30
  -6 -12   4 1097.49   28.50
  -6 -12   4 1060.89   26.80
   6 -12  -4 1061.89   34.50
   6 -12  -4 1147.79   31.20
   6 -12  -4 1094.49   30.00
  -6 -12   4 1090.99   31.30
   6 -12  -4 1021.40   30.30
  -6  12   4 1126.39   31.10
  -4 -12   4  754.32   21.10
   4 -12  -4  793.82   22.00
  -4 -12   4  763.02   25.20
   4 -12  -4  756.42   21.90
   4 -12  -4  766.62   27.10
   4 -12  -4  756.22   22.70
  -4 -12   4  768.32   22.00
  -4  12   4  760.42   22.60
   2 -12  -4   29.90    4.20
  -2 -12   4   29.00    4.80
  -2 -12   4   26.60    4.60
   2 -12  -4   32.00    6.50
   2 -12  -4   33.70    4.60
  -2 -12   4   34.60    4.90
   2 -12  -4   35.40    4.70
   2 -12  -4   31.60    4.30
  -2 -12   4   35.30    6.60
  -2  12   4   29.20    4.80
   0 -12  -4  755.32   19.00
   0 -12  -4  767.52   18.90
   0 -12   4  719.23   24.50
   0 -12   4  779.02   22.70
   0 -12  -4  762.82   20.10
   0 -12  -4  743.63   20.60
   0 -12   4  728.43   23.80
   0 -12  -4  763.12   19.90
   0 -12  -4  799.72   26.10
   0  12   4  781.62   19.40
   2 -12   4 1129.69   29.80
   2 -12   4 1086.99   30.30
  -2 -12  -4 1119.09   25.10
  -2 -12  -4 1090.19   25.90
   2 -12   4 1104.59   34.20
  -2 -12  -4 1098.49   25.30
   4 -12   4  357.66   15.30
   4 -12   4  362.46   14.90
   4 -12   4  358.36   18.40
  -4 -12  -4  363.06   16.30
  -4 -12  -4  316.07   12.50
  -4  12  -4  365.66   12.70
   6 -12   4  146.39   11.40
  -6 -12  -4  154.08   11.70
   6 -12   4  142.89   14.00
   6 -12   4  139.19   11.30
  -6  12  -4  148.39   10.40
   8 -12   4  250.17   18.70
   8 -12   4  245.88   14.50
   8 -12   4  260.87   15.70
  -8 -12  -4  263.97   14.60
  -8  12  -4  230.28   13.60
  10 -12   4  394.66   23.90
  10 -12   4  380.26   20.50
  10 -12   4  383.96   19.20
 -10  12  -4  406.46   18.30
  12 -12   4  302.87   24.70
  12 -12   4  331.97   21.90
  12 -12   4  286.47   20.00
 -12  12  -4  287.37   18.90
  11 -13  -4  182.28   16.50
 -11 -13   4  177.98    9.30
  11 -13  -4  186.68   21.30
  11 -13  -4  160.28   16.60
 -11  13   4  157.88   18.90
   9 -13  -4  364.96   19.10
  -9 -13   4  371.96   13.20
   9 -13  -4  374.06   22.60
   9 -13  -4  388.26   18.50
  -9  13   4  381.66   20.20
   7 -13  -4  369.56   20.90
  -7 -13   4  402.66   18.10
   7 -13  -4  392.26   17.60
  -7 -13   4  411.06   14.20
   7 -13  -4  399.66   17.00
  -7  13   4  366.16   18.80
   5 -13  -4   88.89    9.00
   5 -13  -4   93.99    9.40
   5 -13  -4  100.99    9.60
  -5 -13   4   92.39    7.50
   5 -13  -4  106.99   13.40
  -5 -13   4   94.89   10.40
  -5 -13   4  111.19    8.70
  -5  13   4  107.29   11.00
   3 -13  -4 1217.78   31.30
  -3 -13   4 1248.58   31.50
   3 -13  -4 1221.68   31.60
   3 -13  -4 1259.37   32.30
  -3 -13   4 1257.07   32.40
   3 -13  -4 1273.27   38.50
  -3 -13   4 1177.48   39.30
  -3  13   4 1236.98   32.00
   1 -13  -4  437.86   19.10
   1 -13  -4  397.26   13.50
  -1 -13   4  380.16   18.80
  -1 -13   4  401.36   15.20
  -1 -13   4  391.06   14.90
   1 -13  -4  408.66   13.70
   1 -13  -4  398.66   19.40
   1 -13  -4  402.26   12.70
  -1  13   4  389.36   13.40
   1 -13   4    6.50    4.40
  -1 -13  -4   10.60    3.30
  -1 -13  -4    3.70    2.70
   1 -13   4    4.00    4.40
  -1 -13  -4    5.90    3.40
   1 -13   4   15.70    7.10
  -1 -13  -4    4.50    6.00
   3 -13   4   13.10    7.80
  -3 -13  -4   19.90    6.80
   3 -13   4   17.90    5.40
   3 -13   4    4.60    4.70
   5 -13   4  604.44   21.60
  -5 -13  -4  604.54   23.20
   5 -13   4  618.74   22.40
   5 -13   4  616.54   26.10
   7 -13   4  280.67   19.60
   7 -13   4  278.17   16.40
   7 -13   4  285.67   15.90
  -7 -13  -4  282.87   16.20
  -7  13  -4  270.97   15.90
   9 -13   4   59.89   10.50
   9 -13   4   87.89   13.10
   9 -13   4   81.89   10.40
  -9  13  -4   90.59   10.70
   8 -14  -4   76.09    9.70
   8 -14  -4   85.59   13.10
  -8 -14   4   73.09    7.90
   8 -14  -4   68.79    9.40
  -8  14   4   76.79   11.40
  -6 -14   4  141.69    8.00
  -6 -14   4  145.89   10.00
   6 -14  -4  126.49   16.60
   6 -14  -4  145.69   12.00
  -6 -14   4  134.89   14.30
   6 -14  -4  151.18   12.40
   4 -14  -4   99.09   10.00
  -4 -14   4  105.69    8.80
   4 -14  -4  103.59    9.60
  -4 -14   4   92.79   11.30
  -4 -14   4   89.69    9.10
   4 -14  -4  108.59   15.00
  -4  14   4  112.89   11.50
   2 -14  -4    9.60    4.60
   2 -14  -4   -0.70    4.20
   2 -14  -4    1.40    4.10
  -2 -14   4    9.20    4.80
   2 -14  -4   -4.40    6.90
  -2 -14   4    8.30    4.90
  -2 -14   4    2.20    6.90
   0 -14   4   23.70    5.60
   0 -14   4   24.80    5.90
   0 -14  -4   19.10    4.20
   0 -14  -4   19.90    8.10
   0 -14   4   15.30    8.20
   0 -14  -4   19.70    3.50
   0 -14  -4   19.70    4.80
   2 -14   4  252.47   13.80
   2 -14   4  251.07   18.00
  -2 -14  -4  265.97   17.20
   2 -14   4  270.07   13.80
   4 -14   4  410.16   18.00
   4 -14   4  434.96   18.70
   4 -14   4  438.76   23.30
  -4 -14  -4  428.36   20.90
   6 -14   4    2.80    6.50
   6 -14   4    9.20    9.10
   6 -14   4   -2.90    6.40
  -6 -14  -4   -4.00    7.20
   8 -14   4  325.77   24.00
  -8 -14  -4  331.07   19.30
   8 -14   4  298.97   18.90
   8 -14   4  263.97   17.60
  -5 -15   4   24.80    6.10
  -5 -15   4   16.90    4.90
   5 -15  -4   26.20    7.00
   5 -15  -4    5.90    6.60
  -5 -15   4   17.10    9.60
   5 -15  -4   13.70   10.50
   3 -15  -4    8.90    5.40
  -3 -15   4    1.40    5.40
  -3 -15   4    4.30    5.30
   3 -15  -4    4.10    5.10
  -3 -15   4   -8.20    8.50
   3 -15  -4    9.60    8.90
   1 -15  -4   14.80    9.00
   1 -15  -4    9.00    4.30
  -1 -15   4   -8.60    8.10
   1 -15  -4    6.20    4.60
  -1 -15   4   -1.10    5.80
  -1 -15   4   -8.80    5.10
   1 -15   4   -3.40    5.90
   1 -15   4    2.90    8.80
  -1 -15  -4    6.50    8.00
   1 -15   4    9.30    6.10
  -1 -15  -4    2.60    3.50
  -3 -15  -4   45.80   10.50
   3 -15   4   55.69   11.50
   3 -15   4   62.19    9.00
   3 -15   4   67.39    8.60
   5 -15   4  104.39   10.80
   5 -15   4   69.39   13.50
  -5 -15  -4   80.99   11.80
   5 -15   4   61.69    9.50
 -18   0   5   23.80    8.60
  18   0  -5   21.80   10.10
 -18   0   5    5.10    9.00
 -18   0   5   -3.10    8.10
 -16   0   5    2.40    5.90
  16   0  -5    2.80    6.80
 -16   0   5    7.90    5.70
 -16   0   5    3.90    7.00
 -14   0   5    2.70    3.20
 -14   0   5    3.00    4.60
  14   0  -5   -5.30    4.60
 -14   0   5   -3.90    4.10
  12   0  -5    1.90    3.90
 -12   0   5   -1.40    3.80
  12   0  -5    2.30    3.00
  12   0  -5    2.30    2.50
 -12   0   5    3.80    3.50
 -12   0   5   -0.90    3.50
  10   0  -5    2.30    2.40
 -10   0   5    1.30    2.70
 -10   0   5    1.80    2.70
  10   0  -5    1.70    2.30
 -10   0   5   -3.50    2.40
   8   0  -5    1.80    1.80
  -8   0   5   -1.10    2.20
   8   0  -5    2.00    2.50
   8   0  -5   15.90    3.40
  -8   0   5    5.60    2.60
  -8   0   5    9.00    2.70
   6   0  -5    0.50    1.90
  -6   0   5    2.70    1.80
   6   0  -5   -2.10    1.70
  -6   0   5    0.70    1.90
   6   0  -5    0.70    1.50
  -6   0   5   -0.60    1.60
   4   0  -5    0.50    1.40
   4   0  -5   -0.10    1.60
   4   0  -5    4.10    2.00
  -4   0   5   -0.30    1.40
  -4   0   5    3.10    1.80
   4   0  -5    2.50    1.50
  -4   0   5    2.80    1.60
  -2   0   5    2.70    1.40
  -2   0   5    2.60    1.70
  -2   0   5    1.50    1.20
   2   0  -5    1.10    1.10
   2   0  -5   -1.80    1.60
   2   0  -5    1.20    1.30
   2   0  -5    1.40    1.30
   0   0  -5   -0.40    1.80
   0   0   5    2.20    1.10
   0   0   5   -0.70    1.10
   0   0  -5    4.00    1.40
   0   0   5    1.90    1.20
   2   0   5    1.00    1.10
  -2   0  -5    0.30    1.90
   2   0   5    2.20    1.30
  -2   0  -5    0.50    1.10
  -2   0  -5    2.90    1.40
  -2   0  -5    0.10    1.10
   2   0   5    2.40    1.20
   4   0   5    0.90    1.90
  -4   0  -5    0.80    2.10
   4   0   5   -1.00    1.20
  -4   0  -5    4.00    1.50
   4   0   5    1.70    1.20
   4   0   5   -2.20    1.50
  -4   0  -5   -1.40    1.40
  -4   0  -5    0.70    1.20
   6   0   5   -3.10    1.30
  -6   0  -5    3.90    2.40
   6   0   5    0.30    2.20
   6   0   5    1.10    1.90
  -6   0  -5    0.20    1.50
  -6   0  -5    3.20    1.90
   6   0   5    2.10    2.30
  -6   0  -5    2.80    2.40
  -8   0  -5    6.40    3.10
   8   0   5    0.50    2.70
   8   0   5   -1.50    2.50
  -8   0  -5    0.40    2.20
   8   0   5    1.20    2.70
  -8   0  -5    3.10    2.10
  -8   0  -5    7.50    3.10
   8   0   5    1.20    2.70
   8   0   5   -0.60    1.20
   8   0   5    1.80    2.30
  10   0   5    8.10    3.90
  10   0   5    3.80    2.70
  10   0   5    1.00    1.20
  10   0   5    9.10    3.20
  12   0   5    4.10    4.00
  12   0   5    0.80    3.60
 -12   0  -5    7.70    4.40
  14   0   5   -1.60    5.40
  17  -1  -5  195.08   16.20
 -17  -1   5  208.68   14.60
 -17  -1   5  184.98   14.90
 -17  -1   5  198.28   16.70
 -17   1   5  205.78   17.50
 -17   1   5  176.88   15.30
 -17   1   5  171.88   15.50
  17   1  -5  173.88   16.70
 -15  -1   5  107.09   10.70
 -15  -1   5  110.89   11.60
 -15  -1   5  133.59   11.10
 -15  -1   5  107.99    7.10
  15  -1  -5  112.99   11.60
 -15   1   5  102.99    6.80
 -15   1   5  106.59   10.90
 -15   1   5  104.89   11.30
  15   1  -5   86.09   11.20
 -15   1   5  133.79   12.60
 -13  -1   5  161.98   10.40
  13  -1  -5  166.88   10.90
  13  -1  -5  146.49    7.30
 -13  -1   5  155.28   10.70
 -13  -1   5  149.39   10.00
  13   1  -5  141.29   10.50
 -13   1   5  164.08   10.70
 -13   1   5  153.28   11.20
 -13   1   5  168.68   10.60
 -13   1   5  156.78    7.60
 -11  -1   5  157.18    8.90
  11  -1  -5  156.58    7.90
  11  -1  -5  170.98    7.20
 -11  -1   5  149.49    9.10
 -11  -1   5  156.88    9.40
  11   1  -5  170.68    6.90
 -11   1   5  153.58    9.40
 -11   1   5  156.38    7.40
 -11   1   5  155.88    9.10
  11   1  -5  158.78    7.50
  11   1  -5  161.38    5.60
 -11   1   5  162.98   10.10
  11   1  -5  153.88    9.50
   9  -1  -5  498.15   15.00
   9  -1  -5  518.85   16.60
  -9  -1   5  506.35   16.30
  -9  -1   5  512.25   16.80
   9  -1  -5  520.25   16.20
  -9  -1   5  504.75   15.10
  -9  -1   5  503.95   15.90
   9  -1  -5  525.35   14.40
  -9   1   5  515.05   16.30
   9   1  -5  619.74   21.90
   9   1  -5  491.75   16.20
  -9   1   5  495.45   16.60
   9   1  -5  524.55   14.70
  -9   1   5  498.25   16.90
   9   1  -5  548.15   14.70
  -7  -1   5  113.09    6.10
   7  -1  -5  108.29    6.20
  -7  -1   5  107.99    6.50
   7  -1  -5  102.49    5.50
   7  -1  -5  110.89    6.10
  -7   1   5  113.49    5.70
   7   1  -5  103.49    6.10
  -7   1   5   98.39    6.50
  -7   1   5  106.79    6.30
   7   1  -5  102.39    6.20
   7   1  -5  105.09    5.30
   5  -1  -5 1120.39   27.60
  -5  -1   5 1142.49   28.00
   5  -1  -5 1145.69   27.30
  -5  -1   5 1110.99   26.40
  -5  -1   5 1070.49   27.20
   5  -1  -5 1082.09   26.40
  -5   1   5 1059.59   27.20
   5   1  -5 1132.29   27.30
  -5   1   5 1142.89   26.50
   5   1  -5 1117.69   26.30
   5   1  -5 1158.08   27.50
   5   1  -5 1176.38   27.80
  -5   1   5 1134.19   28.00
   3  -1  -5  385.96   11.50
   3  -1  -5  400.26   11.90
  -3  -1   5  413.56   11.30
  -3  -1   5  399.26   11.80
   3  -1  -5  379.96   11.10
  -3  -1   5  384.66   12.10
   3   1  -5  409.56   11.80
  -3   1   5  378.46   11.60
   3   1  -5  370.16   11.00
  -3   1   5  393.26   12.00
   3   1  -5  378.86   11.80
  -3   1   5  390.06   11.00
   3   1  -5  389.26   12.20
   1  -1  -5    3.30    1.40
   1  -1  -5    1.80    1.30
  -1  -1   5    2.70    1.50
  -1  -1   5    1.30    1.50
   1  -1  -5    4.40    1.40
  -1  -1   5    3.80    1.50
   1   1  -5    0.40    1.30
  -1   1   5    2.10    1.30
  -1   1   5    3.60    1.30
   1   1  -5    0.90    1.20
  -1   1   5    1.80    1.40
   1   1  -5   -1.20    1.60
   1   1  -5    0.80    1.50
  -1  -1  -5  284.47   10.30
  -1  -1  -5  282.57    8.70
   1  -1   5  274.07    9.00
   1  -1   5  277.07   10.10
   1  -1   5  284.47    9.20
  -1  -1  -5  269.87    8.20
   1  -1   5  282.97    8.50
  -1  -1  -5  273.47    8.80
  -1   1  -5  284.27   10.20
   1   1   5  277.07    8.80
  -1   1  -5  286.27    9.00
   1   1   5  267.67    7.90
  -1   1  -5  288.97    9.20
   1   1   5  279.97    8.60
  -1   1  -5  278.07    8.60
   3  -1   5   37.10    4.40
  -3  -1  -5   40.90    3.10
  -3  -1  -5   39.20    3.20
  -3  -1  -5   32.90    4.20
  -3  -1  -5   43.30    3.00
   3  -1   5   39.30    3.30
   3  -1   5   34.40    3.30
  -3   1  -5   34.50    3.30
  -3   1  -5   42.50    3.20
   3   1   5   36.80    3.10
  -3   1  -5   38.70    3.40
  -3   1  -5   45.60    4.80
   3   1   5   38.50    3.10
   5  -1   5  824.22   21.10
  -5  -1  -5  802.42   20.10
  -5  -1  -5  803.22   19.50
  -5  -1  -5  818.12   20.40
   5  -1   5  804.12   22.40
  -5  -1  -5  810.62   21.20
   5  -1   5  803.62   20.60
  -5  -1  -5  816.72   22.20
   5  -1   5  782.12   20.70
   5   1   5  803.42   19.70
   5   1   5  814.62   20.00
  -5   1  -5  825.42   20.50
  -5   1  -5  820.72   20.90
  -5   1  -5  807.22   20.10
  -5   1  -5  802.22   22.00
   5   1   5  842.12   20.60
  -5   1  -5  820.22   20.70
   7  -1   5    4.70    2.30
   7  -1   5    2.20    2.80
  -7  -1  -5    4.20    2.00
   7  -1   5    1.00    1.70
   7  -1   5    1.10    2.10
   7  -1   5    1.60    2.70
  -7  -1  -5    1.50    1.60
  -7  -1  -5    1.90    2.70
   7   1   5    3.60    2.30
   7   1   5    3.30    2.20
   7   1   5   -1.30    1.50
  -7   1  -5   -1.40    2.70
   7   1   5    2.20    1.80
  -7   1  -5   -1.00    2.40
  -7   1  -5    2.70    2.00
  -7   1  -5    1.20    2.10
   9  -1   5  375.36    9.60
   9  -1   5  355.36   14.10
   9  -1   5  375.36   14.80
  -9  -1  -5  374.16   13.30
  -9  -1  -5  358.96   12.30
  -9  -1  -5  356.56   14.10
   9  -1   5  375.46   12.90
   9  -1   5  376.56   12.70
  -9   1  -5  373.26   13.00
   9   1   5  372.16    9.80
  -9   1  -5  373.46   13.30
   9   1   5  377.16   12.90
  -9   1  -5  345.37   13.40
 -11  -1  -5  378.16   13.80
  11  -1   5  384.56   14.00
  11  -1   5  375.46   15.30
  11  -1   5  374.86   13.90
  11   1   5  381.86   13.40
 -11   1  -5  357.46   14.40
  13  -1   5  423.46   15.90
  13  -1   5  380.06   15.50
  13  -1   5  376.46   16.80
 -13  -1  -5  378.26   14.80
  13   1   5  393.66   15.00
  15  -1   5   -3.70    6.50
 -18  -2   5   -4.20    8.30
 -18  -2   5    3.60    8.40
  18  -2  -5    2.60    8.90
 -18  -2   5   -2.70    7.90
 -18   2   5   18.50   11.30
 -18   2   5  -11.70    8.60
 -18   2   5   11.00    8.80
  18   2  -5    3.00    9.80
 -16  -2   5  373.46   18.80
  16  -2  -5  392.96   19.40
 -16  -2   5  385.26   18.00
 -16  -2   5  372.46   17.20
 -16   2   5  375.86   18.80
 -16   2   5  390.76   18.80
  16   2  -5  367.96   19.30
 -16   2   5  387.16   20.40
  14  -2  -5  527.65   20.30
 -14  -2   5  531.85   19.40
 -14  -2   5  502.95   19.80
 -14  -2   5  516.95   19.00
  14  -2  -5  542.55   16.50
 -14   2   5  565.14   21.60
 -14   2   5  548.85   20.50
 -14   2   5  531.75   15.60
 -14   2   5  551.24   20.10
  14   2  -5  550.04   20.90
  12  -2  -5    4.60    3.20
  12  -2  -5    2.60    3.10
 -12  -2   5    4.10    3.40
 -12  -2   5    8.50    4.00
 -12  -2   5    4.50    3.50
 -12   2   5    6.10    4.40
 -12   2   5    3.30    4.10
  12   2  -5    0.30    3.40
 -12   2   5    4.10    3.70
 -12   2   5    4.40    2.90
 -10  -2   5   13.90    3.80
  10  -2  -5   14.90    3.50
 -10  -2   5   13.30    3.50
  10  -2  -5   10.80    2.80
 -10  -2   5   10.20    3.20
  10  -2  -5   15.30    3.90
 -10   2   5    9.30    3.30
  10   2  -5   18.10    3.90
  10   2  -5   13.10    2.90
  10   2  -5   13.50    1.80
 -10   2   5    8.60    3.60
  10   2  -5   13.80    2.40
 -10   2   5    6.20    2.60
 -10   2   5   16.70    4.00
  -8  -2   5 1726.93   40.80
  -8  -2   5 1749.22   39.70
   8  -2  -5 1756.42   41.00
   8  -2  -5 1725.03   40.00
   8  -2  -5 1690.53   41.40
   8  -2  -5 1758.02   39.90
  -8  -2   5 1719.13   41.60
  -8   2   5 1729.33   39.90
  -8   2   5 1721.73   41.20
   8   2  -5 1707.93   39.00
  -8   2   5 1745.03   39.90
  -8   2   5 1778.92   42.30
   8   2  -5 1825.42   40.70
  -8   2   5 1683.43   41.70
   8   2  -5 1725.63   41.10
   8   2  -5 1670.33   40.50
  -6  -2   5  714.53   19.90
  -6  -2   5  718.33   20.40
   6  -2  -5  778.72   20.20
   6  -2  -5  748.23   19.50
  -6  -2   5  761.62   19.30
   6  -2  -5  789.32   20.70
   6   2  -5  782.92   20.20
  -6   2   5  756.42   19.80
  -6   2   5  750.62   19.20
   6   2  -5  762.72   20.40
   6   2  -5  761.82   18.90
  -6   2   5  770.62   21.00
  -6   2   5  772.32   20.40
  -4  -2   5   48.90    3.60
   4  -2  -5   50.59    4.00
  -4  -2   5   44.60    4.20
  -4  -2   5   46.00    3.90
   4  -2  -5   44.30    3.40
   4  -2  -5   50.99    4.00
  -4   2   5   46.20    3.90
   4   2  -5   43.30    3.40
   4   2  -5   48.00    4.00
  -4   2   5   46.00    3.90
   4   2  -5   42.00    4.20
   4   2  -5   53.19    4.00
  -4   2   5   43.30    3.90
  -4   2   5   46.60    3.50
  -2  -2   5  319.77   10.00
   2  -2  -5  295.47    9.70
   2  -2  -5  311.97    9.40
  -2  -2   5  305.67   10.40
  -2  -2   5  315.57   10.30
   2  -2  -5  335.97    9.90
  -2  -2   5  303.57    9.50
   2   2  -5  306.97   10.00
   2   2  -5  324.57   10.70
  -2   2   5  319.07    9.20
  -2   2   5  308.07    9.60
   2   2  -5  318.47    9.90
  -2   2   5  311.97   10.00
   2   2  -5  290.37    9.20
  -2   2   5  298.97   10.00
   0  -2   5 2588.04   56.79
   0  -2   5 2620.04   58.19
   0  -2   5 2662.23   56.49
   0  -2  -5 2581.64   56.59
   0  -2  -5 2573.04   56.29
   0  -2  -5 2633.74   55.99
   0   2   5 2526.35   56.99
   0   2  -5 2587.04   56.49
   0   2   5 2650.63   56.69
   0   2  -5 2701.13   58.29
   0   2  -5 2609.64   56.99
   0   2  -5 2563.44   56.79
   0   2   5 2557.94   56.29
  -2  -2  -5 1269.47   30.20
   2  -2   5 1088.89   29.40
  -2  -2  -5 1205.48   27.40
  -2  -2  -5 1184.28   27.70
  -2  -2  -5 1193.98   26.90
   2  -2   5 1215.68   27.70
   2  -2   5 1164.58   28.10
  -2   2  -5 1207.38   28.80
  -2   2  -5 1134.49   27.60
   2   2   5 1203.88   28.10
  -2   2  -5 1234.58   29.70
   2   2   5 1185.18   27.30
  -2   2  -5 1218.38   28.10
  -4  -2  -5   26.40    2.80
  -4  -2  -5   24.40    2.70
  -4  -2  -5   35.20    2.80
  -4  -2  -5   32.40    4.40
   4  -2   5   20.00    3.30
   4  -2   5   25.80    3.60
   4  -2   5   30.10    3.40
   4  -2   5   30.40    3.20
   4   2   5   28.30    2.80
  -4   2  -5   35.50    4.60
  -4   2  -5   29.80    3.20
   4   2   5   31.50    3.20
  -4   2  -5   25.00    3.00
  -4   2  -5   24.80    3.00
  -4   2  -5   20.30    3.20
  -6  -2  -5  491.85   13.80
   6  -2   5  497.05   14.80
  -6  -2  -5  506.75   15.60
  -6  -2  -5  514.45   13.70
  -6  -2  -5  504.65   15.90
   6  -2   5  485.35   15.50
   6  -2   5  535.25   15.70
   6  -2   5  502.95   16.30
   6  -2   5  489.85   14.90
   6   2   5  496.95   13.50
  -6   2  -5  490.25   14.90
  -6   2  -5  505.25   14.80
  -6   2  -5  508.85   16.00
  -6   2  -5  516.25   14.20
  -6   2  -5  496.05   14.20
   6   2   5  499.85   13.50
   6   2   5  493.05   14.10
   6   2   5  506.85   13.70
   6   2   5  529.55   14.20
  -8  -2  -5  231.68   10.20
  -8  -2  -5  218.18   10.30
  -8  -2  -5  227.18    8.60
   8  -2   5  223.58   10.80
   8  -2   5  218.18   10.10
   8  -2   5  226.48   10.90
   8  -2   5  232.08   10.60
   8  -2   5  246.68   11.90
   8  -2   5  240.68    9.60
  -8   2  -5  249.58   10.90
  -8   2  -5  232.18    9.40
   8   2   5  234.28    8.40
   8   2   5  212.78    8.70
  -8   2  -5  234.78    9.80
   8   2   5  253.47   10.60
  -8   2  -5  230.98    9.60
   8   2   5  229.48    9.00
   8   2   5  227.68    7.60
  10  -2   5 1320.97   35.60
  10  -2   5 1322.27   33.90
 -10  -2  -5 1338.77   33.70
  10  -2   5 1353.66   29.00
  10   2   5 1348.86   33.10
  10   2   5 1346.07   32.30
  10   2   5 1376.06   32.50
 -10   2  -5 1362.06   34.90
 -12  -2  -5   10.80    4.20
  12  -2   5   16.80    4.90
  12  -2   5   21.60    5.80
  12  -2   5    8.70    4.30
  12   2   5   13.50    4.60
  12   2   5    9.40    3.90
  14  -2   5  489.05   19.40
  14  -2   5  460.35   19.80
  14  -2   5  477.55   19.00
  14   2   5  468.05   18.50
  16  -2   5  183.58   15.80
  16  -2   5  190.88   17.60
 -17  -3   5  111.99   13.50
 -17  -3   5  131.49   14.70
 -17  -3   5  125.79   13.10
  17  -3  -5  163.38   15.20
 -17   3   5  106.89   13.50
 -17   3   5  115.79   15.30
 -17   3   5  133.79   15.40
  17   3  -5  103.09   12.60
 -15  -3   5   53.99    7.70
 -15  -3   5   51.69    7.50
  15  -3  -5   56.99    8.50
 -15  -3   5   49.99    7.60
  15  -3  -5   49.00    7.00
 -15   3   5   62.99    9.40
  15   3  -5   66.09    9.90
 -15   3   5   65.39    6.40
 -15   3   5   59.29    8.70
 -15   3   5   45.70    9.70
 -13  -3   5  864.31   27.50
 -13  -3   5  932.31   26.40
  13  -3  -5  796.22   28.40
  13  -3  -5  895.81   24.30
 -13   3   5  874.11   27.00
 -13   3   5  890.01   22.90
  13   3  -5  886.81   33.50
 -13   3   5  861.11   27.70
 -13   3   5  918.21   28.50
 -11  -3   5  553.24   17.70
 -11  -3   5  572.54   18.70
  11  -3  -5  566.54   17.50
  11  -3  -5  572.74   17.20
 -11  -3   5  573.24   18.30
  11   3  -5  559.84   19.20
 -11   3   5  561.04   19.00
 -11   3   5  586.84   20.00
 -11   3   5  530.75   19.10
 -11   3   5  569.14   16.40
  -9  -3   5  247.38   10.50
   9  -3  -5  233.58   10.30
   9  -3  -5  242.78    9.60
   9  -3  -5  230.38   10.60
  -9  -3   5  230.18    9.70
  -9  -3   5  226.08    9.20
   9  -3  -5  238.58    9.50
   9   3  -5  232.38    8.10
   9   3  -5  238.98    7.10
  -9   3   5  221.78   10.90
   9   3  -5  238.38   10.60
  -9   3   5  233.78   10.60
  -9   3   5  225.98    9.10
  -9   3   5  227.78   10.50
  -7  -3   5   58.39    4.40
   7  -3  -5   54.59    4.30
   7  -3  -5   51.09    4.90
  -7  -3   5   46.80    4.80
  -7  -3   5   48.00    4.80
   7  -3  -5   48.80    4.70
   7   3  -5   49.70    4.10
  -7   3   5   51.29    5.00
   7   3  -5   46.10    5.10
  -7   3   5   46.50    5.20
  -7   3   5   52.59    4.50
  -7   3   5   39.00    4.40
  -7   3   5   57.89    5.30
   7   3  -5   50.89    3.70
   7   3  -5   44.90    4.80
   5  -3  -5 1872.51   44.80
  -5  -3   5 1956.80   42.90
  -5  -3   5 1893.81   44.20
  -5  -3   5 1857.81   43.50
   5  -3  -5 1985.50   43.70
   5  -3  -5 1891.61   43.00
  -5   3   5 1919.41   44.40
   5   3  -5 1914.71   43.90
   5   3  -5 1967.90   43.70
   5   3  -5 1876.61   42.10
  -5   3   5 2015.30   42.90
   5   3  -5 1981.00   43.10
  -5   3   5 1874.31   43.60
  -5   3   5 1801.02   43.50
  -3  -3   5 1579.14   37.80
  -3  -3   5 1635.04   38.30
   3  -3  -5 1714.23   38.10
   3  -3  -5 1611.54   37.10
  -3  -3   5 1631.44   38.30
  -3  -3   5 1696.13   37.50
   3  -3  -5 1695.63   37.60
  -3   3   5 1638.64   38.10
  -3   3   5 1576.94   38.00
   3   3  -5 1692.33   38.10
  -3   3   5 1704.73   36.90
   3   3  -5 1597.94   37.70
   3   3  -5 1730.83   38.30
   3   3  -5 1615.34   36.90
  -1  -3   5 2110.79   45.80
   1  -3  -5 2042.90   45.90
  -1  -3   5 2026.60   47.10
   1  -3  -5 2017.40   45.20
   1  -3  -5 2118.99   45.70
  -1  -3   5 2038.10   46.10
  -1  -3   5 2031.90   46.40
  -1   3   5 2063.89   46.50
  -1   3   5 2046.90   45.50
   1   3  -5 2083.79   45.70
   1   3  -5 2137.29   47.20
   1   3  -5 2092.39   46.10
  -1   3   5 2061.39   45.80
  -1  -3  -5  548.75   14.40
   1  -3   5  538.65   14.50
   1  -3   5  550.84   15.00
  -1  -3  -5  503.05   16.10
   1  -3   5  551.54   16.30
  -1  -3  -5  537.45   14.10
   1  -3   5  564.94   15.30
  -1   3  -5  542.75   14.60
   1   3   5  562.04   14.20
  -1   3  -5  559.54   16.30
  -1   3  -5  561.14   15.00
   1   3   5  551.44   15.10
  -1   3  -5  536.25   15.10
   3  -3   5 2611.84   60.59
   3  -3   5 2597.44   58.69
   3  -3   5 2776.52   59.59
  -3  -3  -5 2648.64   57.59
   3  -3   5 2690.73   59.09
  -3  -3  -5 2638.64   57.19
   3   3   5 2658.63   57.49
  -3   3  -5 2674.33   60.39
  -3   3  -5 2763.92   58.89
   3   3   5 2628.94   57.19
   3   3   5 2652.43   58.39
  -3   3  -5 2735.53   59.19
  -5  -3  -5 1065.29   25.20
   5  -3   5 1081.29   27.00
  -5  -3  -5 1095.39   28.20
   5  -3   5 1117.79   28.00
   5  -3   5 1022.00   26.40
  -5  -3  -5 1093.29   25.00
   5  -3   5 1021.40   28.30
   5  -3   5 1100.19   27.50
  -5  -3  -5 1043.00   24.30
  -5   3  -5 1088.89   26.80
   5   3   5 1084.99   24.90
   5   3   5 1086.39   25.30
   5   3   5 1088.09   25.20
   5   3   5 1066.39   25.70
  -5   3  -5 1078.89   28.10
  -5   3  -5 1095.29   25.10
  -5   3  -5 1059.99   26.00
   5   3   5 1070.29   25.00
  -5   3  -5 1097.59   27.10
   7  -3   5  372.56   13.30
   7  -3   5  342.67   12.50
  -7  -3  -5  359.06   13.30
   7  -3   5  328.77   12.80
  -7  -3  -5  380.86   11.00
   7  -3   5  360.46   13.90
  -7  -3  -5  362.66   13.10
  -7  -3  -5  355.06   10.50
   7  -3   5  352.26   12.20
   7   3   5  363.96   14.00
   7   3   5  372.36   10.70
   7   3   5  361.76   10.90
  -7   3  -5  366.46   12.60
  -7   3  -5  345.67   13.40
   7   3   5  349.96   10.90
  -7   3  -5  361.76   11.70
   7   3   5  347.77   10.60
  -7   3  -5  357.76   11.20
  -7   3  -5  351.16   12.20
   9  -3   5   51.59    6.10
  -9  -3  -5   53.19    6.30
   9  -3   5   50.09    6.10
  -9  -3  -5   56.99    4.60
   9  -3   5   66.99    7.60
   9   3   5   60.79    4.70
  -9   3  -5   51.29    6.30
  -9   3  -5   49.99    6.00
   9   3   5   50.69    5.40
  -9   3  -5   64.09    6.00
   9   3   5   51.29    4.70
  11  -3   5  493.55   17.20
  11  -3   5  510.95   17.60
 -11  -3  -5  485.95   16.10
  11  -3   5  503.35   18.60
 -11   3  -5  463.05   16.40
  11   3   5  465.35   15.50
  11   3   5  501.25   14.90
  11   3   5  489.55   14.80
  13  -3   5  891.31   27.70
  13  -3   5  935.01   29.00
  13  -3   5  945.21   27.70
  13   3   5  921.21   24.80
  15  -3   5  310.37   18.30
  15  -3   5  288.27   16.40
 -18  -4   5  289.37   17.60
 -18  -4   5  266.67   18.60
  18  -4  -5  272.07   19.90
 -18  -4   5  268.57   18.00
 -18   4   5  322.07   22.60
 -18   4   5  280.97   24.70
  18   4  -5  304.27   22.30
 -18   4   5  290.97   20.90
 -16  -4   5 1298.57   36.40
  16  -4  -5 1314.37   39.30
 -16  -4   5 1339.87   37.30
 -16  -4   5 1324.97   38.40
 -16   4   5 1307.57   40.20
  16   4  -5 1337.67   40.70
 -16   4   5 1376.36   40.00
 -16   4   5 1329.87   41.80
  14  -4  -5  696.93   24.40
 -14  -4   5  712.03   22.60
  14  -4  -5  705.13   22.20
 -14  -4   5  765.12   23.60
 -14  -4   5  718.93   23.90
  14   4  -5  749.42   25.90
 -14   4   5  698.13   26.20
 -14   4   5  739.43   25.70
 -14   4   5  725.63   20.10
 -14   4   5  739.03   25.30
 -12  -4   5    0.90    3.40
 -12  -4   5   -2.60    3.30
  12  -4  -5    2.70    3.80
  12  -4  -5    4.60    3.60
 -12  -4   5    2.00    3.50
 -12   4   5   10.20    5.40
  12   4  -5    0.70    4.20
 -12   4   5    4.60    4.50
 -12   4   5    8.00    4.50
 -12   4   5    3.30    3.10
 -10  -4   5  791.82   23.30
  10  -4  -5  821.42   24.50
  10  -4  -5  855.31   23.20
  10  -4  -5  870.21   23.70
 -10  -4   5  839.52   23.10
 -10  -4   5  846.52   24.00
 -10   4   5  852.01   24.70
 -10   4   5  876.31   25.30
 -10   4   5  838.42   22.40
 -10   4   5  851.51   25.50
  10   4  -5  841.92   24.60
   8  -4  -5  587.34   17.60
  -8  -4   5  541.95   16.90
   8  -4  -5  557.64   16.80
  -8  -4   5  556.34   16.30
   8  -4  -5  528.45   16.00
  -8  -4   5  554.04   15.50
   8  -4  -5  523.25   16.60
   8   4  -5  569.44   14.00
  -8   4   5  556.44   18.00
  -8   4   5  534.05   16.00
   8   4  -5  549.54   14.10
   8   4  -5  558.04   17.00
  -8   4   5  526.55   15.90
  -8   4   5  532.65   17.00
  -8   4   5  536.55   17.60
  -6  -4   5  837.22   20.60
   6  -4  -5  770.82   21.20
  -6  -4   5  816.32   22.00
   6  -4  -5  806.12   21.00
  -6  -4   5  834.82   21.50
   6  -4  -5  817.42   22.00
   6   4  -5  816.52   21.30
   6   4  -5  766.92   21.20
   6   4  -5  822.62   19.50
  -6   4   5  807.22   22.20
  -6   4   5  811.32   21.40
   6   4  -5  835.82   20.40
  -6   4   5  796.82   21.70
   6   4  -5  811.02   21.20
  -6   4   5  818.32   20.50
   4  -4  -5 1605.64   36.30
  -4  -4   5 1604.24   37.20
  -4  -4   5 1589.24   37.00
   4  -4  -5 1549.74   36.60
   4  -4  -5 1612.54   37.30
  -4  -4   5 1623.54   36.40
  -4  -4   5 1528.95   37.30
  -4   4   5 1587.24   37.30
  -4   4   5 1627.74   37.00
   4   4  -5 1643.14   36.90
  -4   4   5 1627.04   35.90
   4   4  -5 1593.04   37.00
  -4   4   5 1586.84   37.30
   4   4  -5 1549.94   36.70
   4   4  -5 1524.85   35.30
  -4   4   5 1606.34   37.40
  -2  -4   5  626.44   18.10
  -2  -4   5  599.24   17.40
   2  -4  -5  660.13   17.00
  -2  -4   5  635.44   17.40
   2  -4  -5  666.03   16.70
   2  -4  -5  649.74   17.30
  -2  -4   5  698.43   17.40
  -2   4   5  663.83   16.10
   2   4  -5  687.43   17.50
   2   4  -5  656.03   17.50
  -2   4   5  674.63   17.10
   2   4  -5  694.83   18.40
   2   4  -5  673.03   16.80
  -2   4   5  640.94   17.20
  -2   4   5  631.04   17.70
   0  -4  -5 3821.22   80.89
   0  -4   5 3817.12   83.09
   0  -4  -5 3803.52   80.09
   0  -4   5 3823.02   81.09
   0  -4  -5 3830.12   80.49
   0  -4   5 3849.81   81.59
   0  -4   5 3741.13   81.69
   0   4  -5 3642.04   80.89
   0   4  -5 3816.12   82.79
   0   4   5 3757.22   78.59
   0   4   5 3716.03   81.89
   0   4   5 3786.02   80.59
   0   4  -5 3941.51   81.79
   0   4   5 3769.62   80.39
   0   4  -5 3813.22   81.39
   2  -4   5 1417.56   33.50
  -2  -4  -5 1413.16   31.70
  -2  -4  -5 1389.56   30.90
   2  -4   5 1353.26   32.80
   2  -4   5 1318.57   34.40
   2  -4   5 1406.66   33.20
  -2  -4  -5 1412.86   31.40
   2  -4   5 1363.56   32.30
  -2   4  -5 1395.66   33.10
  -2   4  -5 1433.86   34.50
  -2   4  -5 1373.26   32.30
   2   4   5 1444.06   33.10
   2   4   5 1399.86   31.40
   2   4   5 1418.56   31.30
  -2   4  -5 1431.06   33.00
   4  -4   5  167.98    7.40
  -4  -4  -5  165.18    5.70
  -4  -4  -5  168.28    5.40
   4  -4   5  171.78    8.10
  -4  -4  -5  172.48    6.10
   4  -4   5  167.68    7.70
   4  -4   5  176.58    9.00
   4   4   5  173.78    7.10
  -4   4  -5  176.08    5.60
  -4   4  -5  172.78    8.80
   4   4   5  171.78    6.00
  -4   4  -5  170.08    7.70
  -4   4  -5  172.38    7.60
  -4   4  -5  157.68    6.90
   6  -4   5 1279.17   32.90
   6  -4   5 1276.47   34.10
   6  -4   5 1307.07   32.20
   6  -4   5 1339.47   33.60
  -6  -4  -5 1283.57   29.80
   6  -4   5 1286.67   32.50
  -6  -4  -5 1336.77   29.60
  -6  -4  -5 1304.47   33.20
  -6  -4  -5 1320.57   33.30
   6   4   5 1321.57   31.20
   6   4   5 1271.77   30.80
  -6   4  -5 1318.87   33.70
   6   4   5 1308.27   29.70
  -6   4  -5 1303.37   32.60
  -6   4  -5 1357.36   29.80
  -6   4  -5 1304.57   31.50
  -6   4  -5 1315.07   32.40
   6   4   5 1331.27   29.60
   8  -4   5  898.81   26.90
   8  -4   5  939.71   25.60
   8  -4   5  900.51   25.10
  -8  -4  -5  935.81   22.70
   8  -4   5  901.51   26.20
  -8  -4  -5  915.31   25.50
   8   4   5  964.20   22.10
  -8   4  -5  919.91   24.30
   8   4   5  952.00   22.60
  -8   4  -5  881.31   26.60
  -8   4  -5  925.81   25.50
   8   4   5  931.41   22.30
  -8   4  -5  960.30   23.10
  10  -4   5  484.45   16.80
  10  -4   5  464.95   18.10
  10  -4   5  493.45   17.10
 -10  -4  -5  465.65   16.00
  10   4   5  467.85   14.20
  10   4   5  477.75   14.60
  12  -4   5   97.39    9.70
 -12  -4  -5   86.09    8.40
  12  -4   5   82.49    9.30
  12  -4   5   80.29   10.50
  12   4   5   87.99    8.30
  12   4   5  101.59    7.20
  14  -4   5   22.40    7.10
  14  -4   5   23.50    7.00
  14  -4   5    8.00    7.30
  16  -4   5  940.11   33.10
  16  -4   5  928.91   31.40
  17  -5  -5   77.09   10.80
 -17  -5   5   66.59    9.00
 -17  -5   5   59.69    9.20
 -17  -5   5   90.39   10.60
 -17   5   5   60.59   13.90
 -17   5   5   62.29   11.90
 -17   5   5   44.50   10.90
  17   5  -5   77.09   13.60
  15  -5  -5   21.30    7.30
 -15  -5   5   16.00    6.20
 -15  -5   5   18.80    5.80
  15  -5  -5   13.00    6.80
 -15  -5   5   29.70    6.40
 -15   5   5   16.60    7.60
 -15   5   5   19.60    8.00
 -15   5   5   11.00    9.50
  15   5  -5   14.00    7.70
  13  -5  -5  652.73   21.80
 -13  -5   5  660.93   21.80
 -13  -5   5  683.73   21.50
 -13  -5   5  680.33   20.90
 -13   5   5  651.53   24.60
 -13   5   5  698.83   19.70
  13   5  -5  709.03   24.10
 -13   5   5  693.53   24.20
 -13   5   5  629.64   27.70
 -11  -5   5 2256.37   53.19
 -11  -5   5 2314.87   53.89
  11  -5  -5 2141.49   55.39
  11  -5  -5 2295.87   53.89
 -11  -5   5 2309.37   54.49
  11  -5  -5 2324.07   54.59
 -11   5   5 2301.27   52.59
 -11   5   5 2373.46   56.49
 -11   5   5 2277.37   56.79
  11   5  -5 2329.47   55.59
 -11   5   5 2355.46   55.69
   9  -5  -5  374.16   13.20
   9  -5  -5  362.76   14.10
  -9  -5   5  382.36   13.60
  -9  -5   5  354.86   12.30
  -9  -5   5  384.86   13.00
   9  -5  -5  379.06   14.10
   9  -5  -5  366.56   14.00
   9   5  -5  371.76   14.00
  -9   5   5  378.86   14.50
  -9   5   5  381.46   14.80
  -9   5   5  393.66   13.10
   9   5  -5  387.56    9.90
  -9   5   5  381.96   15.20
   7  -5  -5  326.07   11.30
   7  -5  -5  318.37   12.00
  -7  -5   5  320.87   11.80
   7  -5  -5  315.97   11.60
  -7  -5   5  348.67   10.90
  -7  -5   5  330.57   11.40
   7  -5  -5  324.97   12.30
   7   5  -5  333.87   10.10
  -7   5   5  330.17   11.50
   7   5  -5  315.37   11.50
  -7   5   5  330.87   12.90
  -7   5   5  314.27   11.00
   7   5  -5  329.27   11.70
  -7   5   5  318.07   12.00
  -7   5   5  309.97   12.20
   7   5  -5  325.27    9.10
   5  -5  -5  920.51   23.90
   5  -5  -5  921.81   23.00
  -5  -5   5  917.51   24.00
  -5  -5   5  908.51   23.30
  -5  -5   5  901.21   23.40
   5  -5  -5  940.21   23.50
  -5  -5   5  927.81   22.70
  -5   5   5  927.61   22.40
   5   5  -5  919.41   23.30
  -5   5   5  888.91   24.00
  -5   5   5  910.71   23.90
  -5   5   5  914.91   24.20
   5   5  -5  896.51   23.30
   5   5  -5  906.71   21.30
   5   5  -5  958.10   23.10
   5   5  -5  899.61   22.90
  -5   5   5  868.11   23.50
  -3  -5   5 3199.98   71.79
   3  -5  -5 3320.87   70.69
  -3  -5   5 3190.78   71.39
  -3  -5   5 3252.87   70.89
   3  -5  -5 3384.06   71.09
  -3  -5   5 3250.07   72.19
   3  -5  -5 3311.97   71.59
   3   5  -5 3298.87   71.39
  -3   5   5 3208.18   72.09
  -3   5   5 3336.17   71.59
  -3   5   5 3351.56   69.79
   3   5  -5 3269.47   69.99
   3   5  -5 3272.57   71.19
   3   5  -5 3410.66   72.19
  -3   5   5 3313.47   71.19
  -3   5   5 3190.88   71.49
   3   5  -5 3267.27   69.89
  -1  -5   5  316.27   10.60
  -1  -5   5  302.97   11.30
   1  -5  -5  322.27    9.90
   1  -5  -5  316.87    9.60
  -1  -5   5  313.07   10.30
   1  -5  -5  323.87   10.60
  -1  -5   5  305.97   10.00
   1  -5  -5  339.77    9.50
   1   5  -5  300.57    9.60
   1   5  -5  308.87   10.20
   1   5  -5  305.57   11.30
   1   5  -5  302.77   10.20
  -1   5   5  308.47    9.50
  -1   5   5  308.57   10.80
  -1   5   5  290.77    7.90
  -1   5   5  312.67    9.70
  -1  -5  -5  148.59    6.80
   1  -5   5  159.98    6.70
   1  -5   5  144.89    6.70
   1  -5   5  150.18    7.00
  -1  -5  -5  149.79    5.70
  -1  -5  -5  153.88    5.90
   1  -5   5  136.59    7.80
  -1   5  -5  162.78    7.10
   1   5   5  162.78    5.80
  -1   5  -5  143.79    7.90
  -1   5  -5  149.19    6.80
   1   5   5  149.39    7.00
  -1   5  -5  148.99    6.40
  -3  -5  -5  622.14   16.60
  -3  -5  -5  599.44   15.00
   3  -5   5  605.84   16.90
  -3  -5  -5  606.24   14.60
   3  -5   5  577.64   18.50
  -3  -5  -5  596.24   14.20
   3  -5   5  578.54   17.30
   3  -5   5  603.54   17.20
   3   5   5  585.64   16.70
  -3   5  -5  579.64   16.20
  -3   5  -5  592.34   13.30
   3   5   5  612.54   14.50
   3   5   5  569.64   15.20
  -3   5  -5  593.44   18.30
  -3   5  -5  602.14   17.00
  -3   5  -5  609.64   17.20
  -5  -5  -5 1648.04   35.90
  -5  -5  -5 1664.33   36.20
   5  -5   5 1689.83   41.80
   5  -5   5 1626.94   40.30
  -5  -5  -5 1660.73   36.60
   5  -5   5 1593.34   39.70
  -5  -5  -5 1698.63   38.50
   5  -5   5 1674.53   39.60
  -5   5  -5 1694.93   39.80
   5   5   5 1613.04   38.70
  -5   5  -5 1670.03   38.70
  -5   5  -5 1662.03   41.20
   5   5   5 1712.83   35.90
   5   5   5 1689.43   35.90
   5   5   5 1691.43   37.30
  -5   5  -5 1673.83   40.00
   7  -5   5 2199.78   53.09
  -7  -5  -5 2285.37   53.59
   7  -5   5 2327.37   53.29
  -7  -5  -5 2322.37   49.50
   7  -5   5 2268.27   52.69
   7  -5   5 2171.18   53.89
   7  -5   5 2280.17   55.09
  -7   5  -5 2252.07   53.19
   7   5   5 2314.37   48.40
   7   5   5 2351.86   49.30
  -7   5  -5 2197.98   52.59
   7   5   5 2287.37   48.80
   7   5   5 2247.48   48.30
  -7   5  -5 2283.67   51.89
   7   5   5 2282.67   48.70
  -9  -5  -5  237.28   11.30
   9  -5   5  251.47   11.80
   9  -5   5  228.48   11.30
   9  -5   5  226.48   12.80
   9   5   5  232.58    8.00
   9   5   5  233.08    8.30
   9   5   5  241.98    7.80
   9   5   5  222.08    8.40
  -9   5  -5  239.78   10.30
  11  -5   5 1230.18   36.00
  11  -5   5 1251.97   34.20
 -11  -5  -5 1260.07   32.70
  11  -5   5 1301.77   28.80
  11  -5   5 1230.78   34.50
  11   5   5 1261.27   29.00
  11   5   5 1240.98   30.00
  11   5   5 1297.97   29.70
  13  -5   5  805.92   25.90
  13  -5   5  776.32   26.30
  13  -5   5  780.32   27.30
  15  -5   5  431.26   20.60
  15  -5   5  435.06   22.40
  17  -5   5   61.89   21.00
  17  -5   5   31.10   12.00
 -16  -6   5  705.03   23.80
  16  -6  -5  716.53   27.10
 -16  -6   5  711.33   25.30
  16  -6  -5  749.53   26.70
 -16   6   5  720.53   31.90
 -16   6   5  760.32   29.30
 -16   6   5  771.32   29.30
  16   6  -5  709.93   29.10
  14  -6  -5  858.91   27.50
  14  -6  -5  837.32   26.90
 -14  -6   5  844.92   24.80
 -14  -6   5  848.02   26.10
 -14  -6   5  863.41   25.70
 -14   6   5  829.72   28.90
 -14   6   5  817.32   28.40
 -14   6   5  862.11   30.60
  14   6  -5  842.42   28.80
  12  -6  -5  206.08   11.10
  12  -6  -5  206.38   12.30
 -12  -6   5  212.08   10.90
 -12  -6   5  220.98   11.30
 -12   6   5  206.78   10.10
  12   6  -5  187.88   15.70
 -12   6   5  205.48   14.10
 -12   6   5  202.98   12.80
 -12   6   5  205.78   13.10
  10  -6  -5 1035.60   28.80
 -10  -6   5 1032.60   27.60
  10  -6  -5  948.21   28.60
 -10  -6   5 1034.50   26.60
  10  -6  -5 1014.50   27.50
 -10   6   5 1043.60   29.00
 -10   6   5 1018.80   26.90
 -10   6   5 1049.59   29.60
  10   6  -5  989.20   28.50
 -10   6   5  992.70   29.80
  -8  -6   5 2621.84   57.79
   8  -6  -5 2643.84   59.79
   8  -6  -5 2533.45   59.79
   8  -6  -5 2551.04   58.09
   8  -6  -5 2530.85   58.79
  -8  -6   5 2536.05   56.89
  -8  -6   5 2511.05   58.39
  -8   6   5 2522.65   60.09
   8   6  -5 2618.74   55.79
  -8   6   5 2518.35   58.19
  -8   6   5 2574.64   59.39
   8   6  -5 2563.64   58.69
  -8   6   5 2524.45   59.79
  -6  -6   5  808.02   21.90
   6  -6  -5  795.12   21.10
   6  -6  -5  768.92   22.70
  -6  -6   5  788.92   20.40
  -6  -6   5  781.82   21.00
   6  -6  -5  820.02   21.60
  -6  -6   5  790.02   20.90
   6  -6  -5  816.72   25.40
  -6   6   5  780.82   20.20
  -6   6   5  768.82   21.70
   6   6  -5  759.32   20.90
   6   6  -5  797.82   20.40
  -6   6   5  770.72   21.70
   6   6  -5  793.22   18.50
  -6   6   5  811.82   22.50
   6   6  -5  764.22   21.00
   4  -6  -5    8.30    3.30
  -4  -6   5   13.90    3.10
   4  -6  -5   21.30    3.80
  -4  -6   5    9.70    2.50
   4  -6  -5   11.70    2.40
   4  -6  -5   11.50    2.40
   4  -6  -5   12.40    2.60
  -4  -6   5    6.80    2.50
  -4  -6   5   15.00    3.00
   4   6  -5   10.60    2.80
  -4   6   5   10.90    2.40
   4   6  -5    8.20    2.50
   4   6  -5   10.10    3.20
   4   6  -5   10.60    2.40
  -4   6   5    7.50    2.50
  -4   6   5    9.10    2.80
  -4   6   5    8.00    2.60
  -4   6   5   15.80    4.60
   4   6  -5   12.70    2.10
   2  -6  -5 1410.76   33.00
  -2  -6   5 1413.16   33.70
   2  -6  -5 1428.56   33.90
  -2  -6   5 1429.06   33.40
  -2  -6   5 1389.96   34.70
  -2  -6   5 1371.26   32.90
   2  -6  -5 1359.26   32.10
   2  -6  -5 1426.16   32.60
   2   6  -5 1356.66   33.10
  -2   6   5 1422.26   30.60
  -2   6   5 1405.46   32.50
   2   6  -5 1382.56   31.80
   2   6  -5 1439.06   31.20
   2   6  -5 1415.56   34.30
  -2   6   5 1417.46   33.00
  -2   6   5 1459.95   38.80
  -2   6   5 1354.96   34.20
   2   6  -5 1408.56   33.10
   0  -6  -5 1563.84   35.00
   0  -6  -5 1573.34   35.30
   0  -6   5 1586.44   36.40
   0  -6  -5 1633.14   37.30
   0  -6   5 1568.64   37.20
   0  -6   5 1575.54   38.70
   0  -6   5 1546.65   36.80
   0  -6  -5 1545.75   35.70
   0   6  -5 1590.84   36.70
   0   6  -5 1512.35   35.80
   0   6   5 1579.64   35.10
   0   6  -5 1585.94   33.20
   0   6  -5 1575.74   38.30
   0   6  -5 1557.24   36.70
   0   6   5 1550.74   37.50
   0   6   5 1612.94   35.30
   0   6   5 1542.35   36.60
  -2  -6  -5 1116.59   25.30
   2  -6   5 1081.09   27.90
   2  -6   5 1120.19   29.80
   2  -6   5 1134.99   27.30
   2  -6   5 1143.19   28.50
   2  -6   5 1089.49   27.60
  -2  -6  -5 1100.89   25.00
  -2  -6  -5 1131.89   27.80
  -2  -6  -5 1113.59   25.70
   2   6   5 1092.69   24.90
  -2   6  -5 1066.09   26.80
  -2   6  -5 1116.79   27.90
   2   6   5 1083.69   28.00
   2   6   5 1141.29   24.90
  -2   6  -5 1121.39   27.70
   4  -6   5  310.47   13.00
  -4  -6  -5  313.67   10.90
  -4  -6  -5  315.87    8.70
  -4  -6  -5  308.07    8.10
  -4  -6  -5  307.27    8.10
   4  -6   5  309.57   11.50
   4  -6   5  305.07   12.10
   4  -6   5  294.87   11.90
   4  -6   5  286.27   11.10
  -4   6  -5  295.17   10.50
   4   6   5  300.27    8.20
   4   6   5  311.87   11.10
  -4   6  -5  314.77   11.60
   4   6   5  306.87    8.10
  -4   6  -5  296.27   11.50
  -4   6  -5  297.07   12.80
  -6  -6  -5  422.26   13.30
   6  -6   5  414.16   14.80
   6  -6   5  423.76   15.40
  -6  -6  -5  413.96   11.00
   6  -6   5  411.46   14.30
   6  -6   5  420.16   16.30
  -6   6  -5  413.26   14.70
  -6   6  -5  415.36   13.60
   6   6   5  424.56   10.30
   6   6   5  409.76   10.30
   6   6   5  437.26   12.50
   8  -6   5 3078.09   69.69
   8  -6   5 3080.69   72.19
  -8  -6  -5 2996.10   66.89
  -8  -6  -5 3072.49   69.79
   8  -6   5 3045.70   71.19
   8  -6   5 2952.80   69.79
  -8   6  -5 3087.49   68.39
   8   6   5 3056.39   63.99
   8   6   5 3061.59   63.89
   8   6   5 2999.30   63.69
  10  -6   5  999.20   31.20
 -10  -6  -5 1000.70   28.40
  10  -6   5 1053.09   29.50
  10  -6   5 1034.40   29.70
 -10   6  -5 1023.40   28.00
  10   6   5 1015.80   23.50
  10   6   5 1051.89   24.00
  10   6   5 1035.10   23.90
  12  -6   5   13.30    5.90
  12  -6   5   26.20    6.70
  12  -6   5   15.70    8.10
 -12   6  -5   10.90    4.80
  14  -6   5  479.35   23.20
  14  -6   5  501.75   22.40
  14  -6   5  530.45   22.10
 -14   6  -5  492.55   19.40
  16  -6   5  899.61   34.80
  16  -6   5  940.81   32.70
 -16   6  -5  872.11   29.50
 -17  -7   5  158.28   16.70
 -17  -7   5  173.88   13.90
  17  -7  -5  170.78   18.00
 -17   7   5  152.08   19.70
  17   7  -5  159.78   17.20
 -17   7   5  231.58   23.50
  15  -7  -5    7.70    8.60
 -15  -7   5   19.30    6.30
 -15  -7   5   10.70    5.50
  15  -7  -5   10.00    7.30
 -15  -7   5   14.80    6.20
 -15   7   5    8.50    8.40
 -15   7   5   11.20    9.50
  15   7  -5   -3.00    9.00
 -15   7   5    6.30   10.40
 -13  -7   5  165.18   10.60
  13  -7  -5  157.88   13.30
 -13  -7   5  160.38   10.00
 -13  -7   5  179.68   10.80
 -13   7   5  167.58   14.10
 -13   7   5  172.38   16.50
  13   7  -5  181.38   13.90
 -13   7   5  165.98   14.00
  11  -7  -5 1307.97   37.20
 -11  -7   5 1362.16   33.70
  11  -7  -5 1365.16   37.20
 -11  -7   5 1315.67   34.70
  11  -7  -5 1325.97   35.20
 -11  -7   5 1378.86   34.30
  11   7  -5 1364.26   36.90
 -11   7   5 1339.57   37.00
 -11   7   5 1354.26   34.50
 -11   7   5 1391.96   38.80
  -9  -7   5 1122.19   29.10
   9  -7  -5 1097.89   30.50
   9  -7  -5 1076.69   29.80
   9  -7  -5 1118.69   31.20
   9  -7  -5 1093.69   29.00
  -9  -7   5 1118.99   27.90
  -9   7   5 1063.99   31.10
  -9   7   5 1063.39   28.80
   9   7  -5 1103.29   29.90
  -9   7   5 1104.39   30.90
  -9   7   5 1098.19   30.40
  -7  -7   5   11.80    3.10
   7  -7  -5   15.20    3.50
  -7  -7   5   11.40    3.20
  -7  -7   5   13.40    3.50
  -7  -7   5   15.10    3.30
   7  -7  -5    7.30    2.90
   7  -7  -5   10.60    3.40
   7  -7  -5   13.00    3.80
   7   7  -5   11.80    3.40
  -7   7   5   11.60    4.40
  -7   7   5    7.30    3.80
  -7   7   5    5.60    3.20
  -7   7   5   15.50    3.60
   7   7  -5   16.30    3.70
  -7   7   5    4.50    3.60
   5  -7  -5 2772.72   62.29
   5  -7  -5 2877.71   62.89
  -5  -7   5 2796.52   63.19
  -5  -7   5 2724.33   62.49
  -5  -7   5 2742.93   61.99
   5  -7  -5 2871.91   65.29
  -5  -7   5 2790.92   63.29
   5  -7  -5 2828.72   63.49
  -5   7   5 2740.83   63.49
  -5   7   5 2791.92   62.99
  -5   7   5 2670.43   63.39
  -5   7   5 2834.52   60.99
   5   7  -5 2826.72   61.99
   5   7  -5 3172.08   66.79
  -5   7   5 2758.02   63.79
   5   7  -5 2827.12   58.59
  -3  -7   5  911.61   24.70
  -3  -7   5  899.31   23.70
  -3  -7   5  927.21   23.20
   3  -7  -5  909.61   24.30
   3  -7  -5  917.51   22.90
   3  -7  -5  880.51   25.30
  -3  -7   5  915.21   23.50
   3  -7  -5  931.01   23.50
   3  -7  -5  893.11   22.50
   3   7  -5  872.51   23.00
   3   7  -5  833.32   20.80
  -3   7   5  929.11   21.00
  -3   7   5  901.01   23.00
  -3   7   5  915.91   24.80
   3   7  -5  947.41   21.90
   3   7  -5  943.01   24.50
  -3   7   5  897.81   23.40
  -1  -7   5  352.46   13.30
  -1  -7   5  337.67   11.60
   1  -7  -5  350.26   12.60
   1  -7  -5  342.57   10.30
   1  -7  -5  356.06   10.90
  -1  -7   5  348.97   12.90
   1  -7  -5  359.96   10.60
  -1  -7   5  366.36   11.60
   1   7  -5  340.47   11.60
   1   7  -5  346.17   13.10
   1   7  -5  354.16    8.90
   1   7  -5  335.97   11.60
  -1   7   5  348.47   10.80
  -1   7   5  345.57   12.50
  -1   7   5  349.27   10.80
   1   7  -5  340.77   10.40
   1  -7   5    2.40    2.20
   1  -7   5    4.30    2.90
   1  -7   5    2.60    2.00
   1  -7   5    0.90    2.90
  -1  -7  -5    2.80    1.60
   1  -7   5    2.60    2.50
  -1  -7  -5    2.90    1.60
  -1  -7  -5   -0.20    1.50
  -1  -7  -5   10.30    3.10
   1   7   5    4.40    2.60
  -1   7  -5    3.60    3.60
   1   7   5    2.10    1.50
  -1   7  -5    0.70    2.70
  -1   7  -5   12.30    2.60
  -1   7  -5    4.80    2.50
   1   7   5    2.40    1.60
   3  -7   5  596.34   17.50
  -3  -7  -5  591.54   14.10
   3  -7   5  597.84   17.90
  -3  -7  -5  592.44   17.60
  -3  -7  -5  594.44   14.20
   3  -7   5  592.84   19.60
   3   7   5  554.04   17.60
  -3   7  -5  580.44   16.70
   3   7   5  616.64   14.00
  -3   7  -5  563.04   17.60
   3   7   5  617.84   13.80
   5  -7   5 1221.58   31.80
  -5  -7  -5 1239.48   26.90
   5  -7   5 1262.67   34.00
  -5  -7  -5 1204.58   30.50
   5  -7   5 1192.98   31.20
   5  -7   5 1213.48   32.60
  -5  -7  -5 1219.08   26.50
  -5   7  -5 1208.18   30.20
   7  -7   5 1485.85   37.30
   7  -7   5 1453.95   37.70
   7  -7   5 1499.75   39.00
  -7  -7  -5 1430.36   35.50
   7  -7   5 1466.05   39.80
  -7   7  -5 1477.65   36.10
  -9  -7  -5    9.30    3.80
  -9  -7  -5    6.80    5.20
   9  -7   5   21.20    5.30
   9  -7   5   19.10    5.90
   9  -7   5   14.30    4.70
  -9   7  -5   18.60    4.40
  11  -7   5 1110.79   34.50
  11  -7   5 1118.09   32.20
  11  -7   5  927.41   40.40
 -11   7  -5 1097.49   30.00
  13  -7   5 1095.99   35.90
  13  -7   5 1094.09   33.00
  13  -7   5 1041.60   33.50
 -13   7  -5 1064.49   31.10
  15  -7   5   46.00   11.00
  15  -7   5   30.20   11.80
 -15   7  -5   24.70    8.20
  16  -8  -5  657.93   29.00
  16  -8  -5  651.03   26.60
  16  -8  -5  660.53   29.60
 -16  -8   5  629.44   23.40
 -16  -8   5  654.83   22.10
 -16   8   5  634.24   29.90
  16   8  -5  638.14   29.10
 -16   8   5  681.63   29.40
 -14  -8   5  430.46   16.70
  14  -8  -5  432.46   21.30
 -14  -8   5  428.06   16.00
  14  -8  -5  431.76   19.60
 -14  -8   5  401.66   17.00
  14   8  -5  432.86   21.50
 -14   8   5  413.86   21.80
 -14   8   5  398.66   22.40
 -14   8   5  405.76   23.80
 -12  -8   5   35.30    5.70
 -12  -8   5   18.70    4.40
 -12  -8   5   30.90    5.40
  12  -8  -5   19.70    7.20
 -12   8   5   26.30    9.00
  12   8  -5   35.00    7.20
 -12   8   5   35.10    8.10
 -12   8   5   28.00    7.90
 -10  -8   5    7.70    3.90
 -10  -8   5   10.80    3.50
  10  -8  -5    7.60    5.30
  10  -8  -5   16.30    5.80
  10  -8  -5    2.10    4.10
 -10   8   5   22.90    6.80
  10   8  -5    7.70    5.00
 -10   8   5   11.60    5.50
 -10   8   5   12.00    5.50
   8  -8  -5  357.56   14.30
  -8  -8   5  390.36   12.90
   8  -8  -5  360.86   13.60
   8  -8  -5  362.66   14.60
   8  -8  -5  369.16   15.90
  -8  -8   5  369.66   13.50
  -8  -8   5  366.26   12.70
   8   8  -5  385.16   12.40
   8   8  -5  367.36   14.20
  -8   8   5  365.16   14.30
  -8   8   5  379.66   15.00
  -8   8   5  379.96   15.40
  -6  -8   5 1243.28   32.20
   6  -8  -5 1300.67   31.90
  -6  -8   5 1310.87   32.60
  -6  -8   5 1291.97   31.40
  -6  -8   5 1252.07   31.50
   6  -8  -5 1271.37   34.80
   6  -8  -5 1296.17   32.20
   6  -8  -5 1279.97   33.00
  -6   8   5 1279.57   30.50
   6   8  -5 1276.67   31.60
  -6   8   5 1303.07   33.30
   6   8  -5 1278.67   31.70
  -6   8   5 1326.07   33.60
  -6   8   5 1285.17   32.70
  -6   8   5 1261.37   33.30
   4  -8  -5  128.59    6.80
   4  -8  -5  126.99    8.80
  -4  -8   5  126.89    8.10
   4  -8  -5  132.29    7.10
  -4  -8   5  133.99    7.40
   4  -8  -5  135.69    7.00
  -4  -8   5  132.99    7.20
  -4  -8   5  128.49    7.30
  -4   8   5  132.39    5.80
  -4   8   5  139.19    8.40
   4   8  -5  129.89    6.40
  -4   8   5  144.99    7.80
  -4   8   5  114.09    8.30
   2  -8  -5  142.99    8.70
  -2  -8   5  116.39    6.90
  -2  -8   5  122.19    6.80
   2  -8  -5  123.39    6.30
  -2  -8   5  123.19    7.20
   2  -8  -5  114.29    5.80
  -2  -8   5  121.19    6.80
  -2  -8   5  123.39    8.10
   2  -8  -5  114.99    6.00
   2   8  -5  124.89    8.70
  -2   8   5  119.09    6.60
   2   8  -5  129.49    5.20
  -2   8   5  116.49    6.30
   2   8  -5  115.39    4.80
  -2   8   5  120.69    6.50
  -2   8   5  117.39    7.70
   0  -8  -5 1045.40   25.00
   0  -8   5 1066.79   29.50
   0  -8   5 1056.09   27.60
   0  -8  -5 1073.39   25.60
   0  -8  -5 1055.79   28.90
   0  -8  -5 1061.29   24.90
   0  -8   5 1082.19   27.60
   0  -8   5 1051.59   27.10
   0  -8   5 1013.30   26.50
   0   8  -5 1043.50   25.40
   0   8   5 1069.29   25.20
   0   8  -5 1134.69   32.10
   0   8   5 1047.20   26.40
   0   8   5 1046.10   28.40
   2  -8   5 2520.15   56.89
  -2  -8  -5 2472.85   53.19
   2  -8   5 2402.26   57.09
   2  -8   5 2518.55   59.99
   2   8   5 2522.85   52.69
  -2   8  -5 2518.55   55.59
   2   8   5 2503.75   52.89
   4  -8   5   72.49    6.20
   4  -8   5   64.09    6.60
   4  -8   5   61.79    6.40
  -4  -8  -5   62.09    3.50
  -4  -8  -5   62.59    3.20
   4  -8   5   60.69    7.80
  -4   8  -5   66.69    5.90
   6  -8   5  851.31   24.90
  -6  -8  -5  885.21   19.40
   6  -8   5  870.61   25.40
   6  -8   5  860.11   27.40
   6  -8   5  886.21   26.40
   6  -8   5  862.31   25.40
  -6   8  -5  867.01   23.60
   8  -8   5  174.28   12.60
   8  -8   5  163.18   13.10
   8  -8   5  185.38   11.10
   8  -8   5  171.48   10.40
  -8   8  -5  188.88    9.80
  10  -8   5  189.78   14.10
  10  -8   5  166.18   12.20
  10  -8   5  179.18   12.00
 -10   8  -5  184.88   10.90
  12  -8   5  168.08   16.20
  12  -8   5  152.98   13.90
  12  -8   5  148.79   13.40
 -12  -8  -5  155.08    9.80
 -12   8  -5  163.18   12.00
  14  -8   5  113.59   13.30
  14  -8   5   81.79   11.70
  14  -8   5  111.49   14.50
 -14   8  -5   84.79   10.50
 -15  -9   5  127.89   11.30
  15  -9  -5  115.29   15.10
 -15  -9   5  144.19   12.20
  15  -9  -5  123.79   14.90
  15  -9  -5  123.59   15.70
 -15   9   5  116.49   15.90
 -15   9   5  121.59   15.00
  15   9  -5  116.99   14.30
 -13  -9   5  140.29    9.70
  13  -9  -5  143.09   15.80
 -13  -9   5  133.69   10.50
  13   9  -5  119.39   14.90
 -13   9   5  128.39   15.80
 -13   9   5  129.79   15.40
  11  -9  -5   10.70    5.10
 -11  -9   5    5.30    4.10
 -11  -9   5   -0.60    4.00
  11  -9  -5    2.20    6.30
 -11  -9   5   -0.20    3.70
 -11   9   5   16.70    7.20
 -11   9   5    7.90    6.40
 -11   9   5    2.70    7.70
  -9  -9   5  273.07   11.10
   9  -9  -5  279.67   12.60
  -9  -9   5  300.67   11.10
  -9  -9   5  290.87   12.10
   9  -9  -5  253.87   17.60
  -9   9   5  295.67   14.60
   9   9  -5  297.87   13.80
  -9   9   5  301.17   14.70
  -9   9   5  286.27   15.80
  -7  -9   5   -3.30    2.80
   7  -9  -5    4.30    4.10
  -7  -9   5    2.80    3.60
   7  -9  -5   -1.70    4.30
   7  -9  -5   -1.40    3.00
  -7  -9   5   -4.40    2.90
  -7   9   5    8.40    4.50
  -7   9   5   -2.80    4.10
  -7   9   5    3.40    4.20
  -7   9   5    4.80    4.30
   7   9  -5    1.10    3.70
   7   9  -5   -0.80    4.40
   5  -9  -5  406.76   14.00
  -5  -9   5  417.66   13.80
   5  -9  -5  402.16   13.60
  -5  -9   5  400.16   13.60
   5  -9  -5  427.36   17.00
  -5  -9   5  426.56   15.30
   5  -9  -5  417.86   14.50
  -5  -9   5  402.66   14.20
   5   9  -5  421.86   13.20
   5   9  -5  409.56   15.10
  -5   9   5  424.96   11.90
  -5   9   5  416.86   14.90
  -5   9   5  408.36   14.80
  -3  -9   5  529.05   16.30
  -3  -9   5  546.75   18.10
  -3  -9   5  521.75   16.20
   3  -9  -5  519.05   15.20
   3  -9  -5  540.75   18.80
   3  -9  -5  514.65   15.30
   3  -9  -5  504.25   15.70
  -3  -9   5  519.15   16.00
  -3  -9   5  498.25   15.70
  -3   9   5  524.05   15.60
  -3   9   5  530.45   16.10
  -3   9   5  505.25   15.80
   1  -9  -5   36.40    5.60
  -1  -9   5   33.60    5.60
   1  -9  -5   33.80    4.00
  -1  -9   5   34.50    4.80
  -1  -9   5   42.20    5.20
  -1  -9   5   40.50    5.10
   1  -9  -5   28.90    3.40
   1  -9  -5   31.50    3.90
   1   9  -5   37.40    3.70
  -1   9   5   40.10    4.70
   1   9  -5   33.70    3.80
  -1   9   5   33.00    4.10
   1  -9   5   -0.60    3.70
  -1  -9  -5    0.00    1.90
  -1  -9  -5    2.00    1.80
   1  -9   5    3.00    2.80
   1  -9   5    0.80    2.70
  -1  -9  -5    0.00    3.20
  -1   9  -5    7.20    2.90
  -1   9  -5    3.10    2.70
   1   9   5    3.50    2.10
   1   9   5    4.30    2.00
   1   9   5    4.40    2.10
   3  -9   5  526.75   17.20
  -3  -9  -5  507.05   13.10
   3  -9   5  536.05   18.40
  -3  -9  -5  492.95   14.50
  -3  -9  -5  492.05   17.50
   3  -9   5  531.25   16.90
   3  -9   5  517.95   19.60
  -3   9  -5  513.35   15.60
  -3   9  -5  526.65   15.20
   5  -9   5  597.94   20.00
   5  -9   5  609.84   19.40
  -5  -9  -5  590.74   14.00
   5  -9   5  588.54   19.60
  -5  -9  -5  595.14   19.50
   5  -9   5  617.24   22.30
   5  -9   5  607.94   20.60
  -5   9  -5  585.24   17.90
  -7  -9  -5   25.00    2.60
  -7  -9  -5   32.70    5.30
   7  -9   5   21.60    6.80
   7  -9   5   28.90    5.60
  -7   9  -5   27.10    5.00
   9  -9   5   17.80    6.10
  -9  -9  -5   23.20    5.10
   9  -9   5   16.00    6.90
   9  -9   5   12.00    5.20
  -9   9  -5   19.00    5.40
  11  -9   5  151.48   12.70
 -11  -9  -5  134.49    9.70
  11  -9   5  139.39   15.40
  11  -9   5  123.99   13.00
 -11   9  -5  156.08   12.00
  13  -9   5  209.28   20.30
  13  -9   5  230.88   18.50
  13  -9   5  213.78   16.70
 -13   9  -5  210.28   15.20
 -14 -10   5   22.40    6.80
 -14 -10   5   28.30    6.20
  14 -10  -5   23.20    9.10
  14 -10  -5   29.40   11.90
  14 -10  -5   13.00    9.30
 -14  10   5   27.10   11.60
  14  10  -5   23.50   11.50
 -14  10   5   15.50   12.70
  12 -10  -5   -2.30    7.80
 -12 -10   5    3.60    4.90
 -12 -10   5    7.00    4.40
 -12  10   5   14.40    8.70
  12  10  -5  -13.70    7.50
 -10 -10   5  102.09    7.70
 -10 -10   5  100.29    8.60
  10 -10  -5  100.89   13.00
  10 -10  -5  109.99    9.80
 -10  10   5   93.69   10.50
 -10  10   5  104.09   12.40
  10  10  -5   86.19   11.30
  -8 -10   5   10.10    3.80
   8 -10  -5    7.40    4.40
   8 -10  -5    0.90    5.10
  -8 -10   5    1.00    4.20
  -8 -10   5    3.40    3.30
  -8  10   5   -2.30    5.90
   8  10  -5    4.30    5.00
  -8  10   5    6.20    5.70
  -8  10   5   11.70    6.50
  -6 -10   5   32.90    5.60
  -6 -10   5   31.10    6.10
   6 -10  -5   35.70    5.20
   6 -10  -5   30.90    5.00
   6 -10  -5   29.00    7.00
  -6 -10   5   40.60    4.80
   6 -10  -5   29.30    4.70
   6  10  -5   33.00    5.10
  -6  10   5   17.50    5.60
   6  10  -5   26.80    6.40
  -6  10   5   24.80    5.80
  -6  10   5   33.20    5.50
  -6  10   5   29.20    4.30
   4 -10  -5    4.40    3.10
  -4 -10   5   -1.40    4.00
  -4 -10   5    1.00    2.80
  -4 -10   5    0.20    2.90
   4 -10  -5   -1.80    3.70
   4 -10  -5    3.00    2.90
  -4 -10   5    1.70    3.80
  -4  10   5    1.30    3.60
  -4  10   5    1.20    3.90
  -4  10   5    1.10    3.80
   2 -10  -5  131.99    7.10
  -2 -10   5  120.19    8.50
   2 -10  -5  126.49    6.90
   2 -10  -5  128.49    6.70
  -2 -10   5  117.79    7.50
   2 -10  -5  140.19   10.20
  -2 -10   5  130.89    7.90
  -2 -10   5  120.09    9.70
  -2  10   5  123.09    7.60
  -2  10   5  117.99    7.30
  -2  10   5  121.69    7.40
   0 -10   5  307.17   14.50
   0 -10  -5  298.27   10.10
   0 -10  -5  304.67   13.90
   0 -10  -5  296.77    9.60
   0 -10   5  294.97   11.80
   0 -10   5  301.47   12.20
   0 -10  -5  289.67    9.80
   0  10  -5  301.57    9.00
   0  10   5  303.97   10.00
   0  10   5  308.97    9.80
   0  10  -5  295.57    9.20
  -2 -10  -5   23.60    3.00
  -2 -10  -5   26.50    2.60
  -2 -10  -5   23.40    2.70
   2 -10   5   30.10    6.00
  -2 -10  -5   23.60    2.90
   2 -10   5   30.00    4.90
   2 -10   5   24.10    4.40
  -2 -10  -5   25.00    5.00
   2 -10   5   35.10    5.30
  -2  10  -5   32.90    4.40
  -2  10  -5   23.70    4.20
  -4 -10  -5   42.50    3.40
   4 -10   5   43.50    6.60
  -4 -10  -5   33.00    5.60
   4 -10   5   21.30    5.80
   4 -10   5   42.40    5.70
   4 -10   5   35.50    6.10
   4 -10   5   40.00    5.90
  -4  10  -5   34.30    5.10
  -4  10  -5   43.00    5.40
   6 -10   5   37.10    5.90
   6 -10   5   43.10    8.10
  -6 -10  -5   44.00    6.20
   6 -10   5   27.70    5.80
   6 -10   5   33.10    7.40
  -6  10  -5   47.30    6.00
   8 -10   5   -3.70    4.80
  -8 -10  -5    7.70    5.00
   8 -10   5    9.70    5.50
   8 -10   5   15.80    6.60
  -8  10  -5    5.50    5.30
  10 -10   5   -4.50    5.70
 -10 -10  -5    4.80    5.10
  10 -10   5   -1.60    7.50
  10 -10   5   -1.00    6.20
 -10  10  -5    0.30    6.00
  12 -10   5   27.30   11.10
  12 -10   5    8.50    8.20
  12 -10   5    3.90    7.20
 -12  10  -5    8.60    7.10
 -13 -11   5   95.79   10.30
 -13 -11   5   91.79    9.10
  13 -11  -5   97.09   12.10
  13 -11  -5   79.39   13.70
  13 -11  -5   68.39   12.30
 -13  11   5   69.69   12.20
 -13  11   5   81.59   14.70
 -11 -11   5   49.70    6.30
 -11 -11   5   56.09    7.40
  11 -11  -5   42.70   10.50
 -11  11   5   40.80   10.90
 -11  11   5   36.80    9.80
   9 -11  -5  -10.90    6.40
  -9 -11   5    6.20    5.20
  -9 -11   5    1.40    3.60
  -9 -11   5    1.30    4.10
   9 -11  -5    7.40    5.00
  -9  11   5   -6.10    6.40
  -9  11   5  -12.20    7.40
  -7 -11   5   83.89    9.40
   7 -11  -5   89.69   10.90
  -7 -11   5   95.89    8.00
  -7 -11   5   81.39    8.20
   7 -11  -5   85.29    8.70
  -7  11   5   92.59   11.50
  -7  11   5   87.29   10.40
  -7  11   5   85.19    7.00
  -5 -11   5   20.50    4.50
  -5 -11   5   25.70    4.60
   5 -11  -5   28.10    6.40
   5 -11  -5   25.50    4.70
  -5 -11   5   16.60    5.70
  -5  11   5   14.30    5.50
  -5  11   5   12.70    5.80
   3 -11  -5   91.59    6.90
   3 -11  -5  105.49    6.80
   3 -11  -5   91.39    6.90
  -3 -11   5   87.69    9.50
  -3 -11   5  108.19    7.70
  -3 -11   5  104.59    7.80
   3 -11  -5  101.69   10.20
  -3  11   5   93.19    8.20
  -3  11   5  100.59    8.20
  -1 -11   5  288.37   11.80
   1 -11  -5  287.57    9.90
   1 -11  -5  291.97   10.40
   1 -11  -5  282.17   10.40
  -1 -11   5  279.47   14.80
  -1 -11   5  285.07   12.20
  -1  11   5  270.77   10.40
  -1 -11  -5    6.40    4.70
  -1 -11  -5    1.40    2.70
   1 -11   5    3.40    3.60
  -1 -11  -5    4.60    2.30
  -1 -11  -5    7.60    2.80
   1 -11   5    0.30    3.80
   1 -11   5   14.20    5.40
  -1 -11  -5    5.00    2.20
  -1  11  -5    7.00    3.00
   1  11   5    1.30    2.30
  -1  11  -5    6.60    3.10
   3 -11   5  932.51   27.20
   3 -11   5  961.50   27.00
   3 -11   5  924.51   30.40
  -3 -11  -5  912.01   22.00
  -3 -11  -5  939.61   28.70
   3 -11   5  992.60   27.70
  -3  11  -5  908.91   24.60
  -3  11  -5  952.30   24.50
   5 -11   5   24.30    5.80
   5 -11   5   20.30    6.50
   5 -11   5   28.20    6.00
  -5 -11  -5   26.90    5.80
  -5 -11  -5   23.50    2.60
  -5  11  -5   27.00    5.50
   7 -11   5  164.68   15.00
   7 -11   5  168.08   11.70
  -7 -11  -5  165.48   11.70
   7 -11   5  149.39   12.00
  -7  11  -5  155.98   10.70
   9 -11   5   18.80    9.00
  -9 -11  -5    1.50    5.80
   9 -11   5    3.90    6.30
   9 -11   5   -0.70    6.20
  -9  11  -5    2.70    6.10
  11 -11   5   -6.20    6.80
  11 -11   5    7.60    8.10
  11 -11   5  -10.80    9.70
 -11  11  -5    5.80    7.20
  12 -12  -5   14.90    8.60
  12 -12  -5   17.90    9.80
 -12 -12   5    9.80    5.50
 -12 -12   5   10.70    5.10
  12 -12  -5   14.00   11.40
 -12  12   5   10.60   10.70
  10 -12  -5   56.89    8.80
  10 -12  -5   59.89    9.80
 -10 -12   5   50.09    5.50
 -10 -12   5   51.69    6.50
  10 -12  -5   45.70   10.80
 -10  12   5   36.00    9.70
   8 -12  -5  444.96   22.30
   8 -12  -5  421.36   17.30
   8 -12  -5  445.96   18.30
  -8 -12   5  432.26   18.00
  -8 -12   5  414.26   15.60
  -8 -12   5  436.56   14.20
  -8  12   5  432.36   19.50
   6 -12  -5  513.85   22.60
   6 -12  -5  455.35   17.60
   6 -12  -5  503.55   17.60
  -6 -12   5  491.65   19.50
  -6 -12   5  486.95   17.30
  -6 -12   5  486.55   15.90
  -6  12   5  505.15   19.00
  -4 -12   5    7.00    4.00
   4 -12  -5    3.10    3.80
  -4 -12   5    3.50    5.30
   4 -12  -5    6.80    4.00
  -4 -12   5   -0.30    3.80
   4 -12  -5   -6.50    5.50
  -4  12   5    6.00    4.90
   2 -12  -5  106.59   11.20
  -2 -12   5   83.99   10.70
  -2 -12   5   99.39    8.50
  -2 -12   5   91.19    8.10
   2 -12  -5   94.79    7.00
   2 -12  -5  100.99    7.20
   2 -12  -5   98.69    7.40
  -2  12   5  101.09    8.00
   0 -12  -5  133.39    7.80
   0 -12  -5  161.78    8.20
   0 -12  -5  151.18   12.30
   0 -12  -5  159.48    7.10
   0 -12   5  172.48   10.20
   0 -12  -5  161.68    7.60
   0 -12   5  144.39    9.80
   0 -12  -5  168.18    8.10
   0 -12   5  157.38   12.90
   0  12   5  156.88    7.80
   2 -12   5  235.08   12.10
  -2 -12  -5  254.87   14.50
   2 -12   5  240.38   12.50
  -2 -12  -5  241.38    8.40
  -2 -12  -5  233.98    8.80
   2 -12   5  260.47   15.80
  -2  12  -5  241.38    8.90
  -4 -12  -5   15.30    3.50
   4 -12   5    2.50    6.10
   4 -12   5   15.20    5.20
  -4 -12  -5   18.90    6.00
   4 -12   5   13.00    5.30
  -4  12  -5    8.70    5.00
   6 -12   5   23.40    8.20
  -6 -12  -5   29.40    8.50
   6 -12   5   25.40    6.60
   6 -12   5   23.80    6.20
  -6  12  -5   28.30    6.40
   8 -12   5  125.49   15.90
   8 -12   5  133.09   12.60
   8 -12   5  115.49   13.20
  -8  12  -5  113.09   12.30
  10 -12   5  379.06   24.40
  10 -12   5  371.26   21.20
  10 -12   5  399.26   21.00
 -10  12  -5  368.66   19.10
   9 -13  -5   50.69    9.20
   9 -13  -5   56.89    8.80
  -9 -13   5   56.29    6.70
  -9 -13   5   61.49    7.30
   9 -13  -5   74.69   12.70
  -9  13   5   64.39   11.40
   7 -13  -5    3.90    5.50
   7 -13  -5    1.40    7.90
  -7 -13   5    1.70    4.20
   7 -13  -5    5.90    5.70
   7 -13  -5    1.10    5.70
  -7 -13   5   -0.60    6.90
  -7 -13   5    8.30    4.90
  -7  13   5   -7.50    7.00
   5 -13  -5  421.96   16.50
   5 -13  -5  436.06   16.70
  -5 -13   5  459.05   16.80
  -5 -13   5  404.16   15.10
  -5 -13   5  436.36   25.10
   5 -13  -5  439.06   22.10
   5 -13  -5  452.45   17.50
  -5  13   5  436.46   18.10
  -3 -13   5  330.47   17.50
   3 -13  -5  343.37   19.20
   3 -13  -5  324.47   13.70
  -3 -13   5  312.97   13.60
   3 -13  -5  313.87   12.90
  -3 -13   5  333.77   14.20
   3 -13  -5  325.17   13.40
  -3  13   5  338.77   14.30
   1 -13  -5  131.09    8.10
   1 -13  -5  124.59    8.30
   1 -13  -5  129.69   13.50
  -1 -13   5  143.39   10.40
  -1 -13   5  154.58   13.80
  -1 -13   5  139.79   10.50
   1 -13  -5  125.49    8.90
  -1 -13  -5   10.40    3.70
  -1 -13  -5   15.10    3.90
  -1 -13  -5    3.90    3.00
  -1 -13  -5   11.20    6.40
   1 -13   5   10.70    6.70
   1 -13   5    5.20    5.00
   1 -13   5   12.70    4.90
  -3 -13  -5  443.96   19.80
   3 -13   5  403.96   17.40
   3 -13   5  434.16   21.80
   3 -13   5  414.96   17.20
  -5 -13  -5  535.15   22.30
   5 -13   5  532.25   20.70
   5 -13   5  563.84   26.00
   5 -13   5  531.65   21.20
   7 -13   5  101.39   13.10
   7 -13   5  101.19   12.50
  -7 -13  -5  123.59   13.60
   7 -13   5   98.59   13.40
  -7  13  -5  115.69   11.40
   9 -13   5   63.29   10.70
   9 -13   5   46.70   11.60
   9 -13   5   46.60   10.20
  -9  13  -5   74.89   10.90
   8 -14  -5 1104.59   39.70
   8 -14  -5 1097.19   33.30
   8 -14  -5 1079.19   34.20
  -8 -14   5 1124.59   28.50
  -8 -14   5 1063.99   29.20
  -8  14   5 1104.19   35.40
   6 -14  -5  358.06   17.10
  -6 -14   5  335.17   15.20
   6 -14  -5  328.07   16.30
  -6 -14   5  351.16   19.80
   6 -14  -5  339.47   21.80
  -6 -14   5  343.87   13.50
  -6  14   5  357.06   18.90
   4 -14  -5    9.00    5.30
  -4 -14   5   10.20    5.50
  -4 -14   5    8.50    5.50
   4 -14  -5    7.70    5.60
  -4 -14   5    3.20    8.10
   4 -14  -5    7.90    5.40
   4 -14  -5   13.30    9.00
  -2 -14   5  415.16   17.00
  -2 -14   5  390.26   21.00
  -2 -14   5  419.06   16.60
   2 -14  -5  404.56   22.10
   2 -14  -5  422.36   14.40
   2 -14  -5  415.26   15.30
   2 -14  -5  420.16   15.50
   0 -14  -5  402.16   21.40
   0 -14   5  386.16   16.70
   0 -14  -5  381.56   13.10
   0 -14  -5  375.66   11.40
   0 -14   5  399.76   17.00
   0 -14   5  398.46   21.60
   0 -14  -5  409.36   14.30
   2 -14   5   67.39    8.50
   2 -14   5   71.09   11.10
   2 -14   5   59.49    8.20
  -2 -14  -5   68.29   11.30
   4 -14   5  375.56   17.70
   4 -14   5  355.26   22.60
  -4 -14  -5  364.06   20.60
   4 -14   5  355.36   17.70
   6 -14   5   27.10   12.10
  -6 -14  -5   30.80    9.20
   6 -14   5   34.50    8.60
   6 -14   5   36.70    8.90
   5 -15  -5   40.80    7.90
  -5 -15   5   43.20    6.60
   5 -15  -5   17.80   10.50
  -5 -15   5   49.40   11.70
  -5 -15   5   41.60    7.60
   5 -15  -5   39.80    8.00
  -3 -15   5  923.81   27.80
   3 -15  -5  898.71   25.40
   3 -15  -5  872.31   34.40
  -3 -15   5  866.31   26.30
   3 -15  -5  907.11   26.60
  -3 -15   5  948.21   33.60
   1 -15  -5  697.03   29.00
  -1 -15   5  631.14   28.60
  -1 -15   5  661.73   22.40
  -1 -15   5  645.74   23.00
   1 -15  -5  650.93   19.60
   1 -15  -5  629.64   17.80
   1 -15   5  174.98   13.30
  -1 -15  -5  133.89   17.30
   1 -15   5  135.69   12.60
   1 -15   5  119.79   14.80
   3 -15   5  652.53   24.00
   3 -15   5  652.83   24.80
   3 -15   5  698.23   30.70
  -3 -15  -5  641.54   28.20
   5 -15   5  849.22   37.90
  -5 -15  -5  818.02   31.60
 -18   0   6  607.64   28.40
 -18   0   6  653.43   27.10
 -18   0   6  597.24   26.20
  18   0  -6  625.84   27.60
  16   0  -6 1182.88   37.00
 -16   0   6 1211.98   37.80
 -16   0   6 1139.59   35.70
 -16   0   6 1206.08   35.50
  14   0  -6  698.33   24.60
 -14   0   6  740.83   24.20
 -14   0   6  694.03   24.40
 -14   0   6  701.83   25.20
 -14   0   6  713.63   20.20
  14   0  -6  715.83   18.00
  12   0  -6  394.86   12.00
  12   0  -6  380.76   13.60
 -12   0   6  357.46   15.60
  12   0  -6  417.56   13.90
 -12   0   6  408.46   16.60
 -12   0   6  389.16   15.40
  12   0  -6  385.66   15.90
  10   0  -6 3406.56   71.79
 -10   0   6 3193.88   73.29
  10   0  -6 3224.08   71.49
 -10   0   6 3167.88   74.29
 -10   0   6 3213.88   74.09
   8   0  -6 2000.50   48.40
  -8   0   6 2031.50   48.70
   8   0  -6 2215.38   48.40
  -8   0   6 2117.09   49.80
   8   0  -6 2073.29   47.40
   8   0  -6 2083.49   49.20
  -6   0   6 1083.79   27.30
  -6   0   6 1028.30   27.60
   6   0  -6 1028.70   26.00
   6   0  -6 1131.59   27.60
   6   0  -6 1101.39   27.20
   6   0  -6 1028.70   27.30
  -6   0   6 1080.69   26.20
   4   0  -6  676.13   18.50
   4   0  -6  686.63   19.10
   4   0  -6  660.63   17.40
   4   0  -6  663.33   18.10
  -4   0   6  649.64   18.60
  -4   0   6  659.03   18.20
  -4   0   6  635.24   17.30
   2   0  -6 5747.73  118.39
   2   0  -6 5159.68  115.79
   2   0  -6 5729.33  116.79
   2   0  -6 5555.24  117.09
  -2   0   6 5101.89  119.19
  -2   0   6 5610.94  116.79
  -2   0   6 5665.23  115.99
   0   0   6 2370.66   52.09
   0   0  -6 2431.86   54.29
   0   0   6 2344.67   52.29
   0   0  -6 2318.57   51.59
   0   0   6 2223.98   51.09
   0   0  -6 2415.76   52.19
   0   0  -6 2316.87   52.29
  -2   0  -6 2900.81   62.49
  -2   0  -6 2745.73   61.79
   2   0   6 2879.51   62.79
   2   0   6 2915.91   61.59
  -2   0  -6 2923.11   64.99
  -2   0  -6 2885.41   62.89
   2   0   6 2796.82   62.69
   4   0   6  363.36   11.40
  -4   0  -6  364.56   11.30
  -4   0  -6  356.16   10.70
  -4   0  -6  358.96   11.50
  -4   0  -6  361.96   13.30
   4   0   6  353.66   11.50
  -6   0  -6 7670.53  154.28
   6   0   6 7129.39  153.18
  -6   0  -6 7422.46  153.38
   6   0   6 7103.19  155.98
  -6   0  -6 7039.50  153.68
   6   0   6 7381.76  154.58
   6   0   6 7160.88  153.48
   6   0   6 7426.86  154.08
  -6   0  -6 7221.88  152.68
  -6   0  -6 7474.25  156.08
  -8   0  -6 2320.77   53.99
   8   0   6 2307.67   52.89
   8   0   6 2311.57   53.79
   8   0   6 2289.47   50.89
  -8   0  -6 2314.87   55.09
  -8   0  -6 2361.96   52.39
   8   0   6 2323.67   53.19
  -8   0  -6 2385.86   53.79
  -8   0  -6 2424.06   53.29
  10   0   6   38.50    5.10
 -10   0  -6   33.40    5.70
  10   0   6   42.40    3.30
  10   0   6   42.40    5.20
 -10   0  -6   36.30    5.00
  12   0   6  581.44   18.90
  12   0   6  555.64   18.80
  14   0   6  860.91   26.40
 -17  -1   6    5.70    8.80
  17  -1  -6   18.90    9.50
 -17  -1   6  -11.00    6.80
 -17  -1   6   -3.70    7.10
 -17   1   6   16.00    8.00
  17   1  -6    1.10    7.40
 -17   1   6    2.60    9.00
 -17   1   6    7.40    8.60
  15  -1  -6  578.94   23.10
 -15  -1   6  618.14   23.50
 -15  -1   6  605.94   22.70
 -15  -1   6  587.04   22.00
 -15  -1   6  601.94   18.00
 -15   1   6  593.94   17.70
 -15   1   6  589.44   23.90
 -15   1   6  572.24   22.70
 -15   1   6  598.64   22.60
  15   1  -6  587.94   23.30
  13  -1  -6 2123.49   53.89
 -13  -1   6 2110.19   52.59
  13  -1  -6 2162.28   50.79
 -13  -1   6 2177.18   54.29
 -13  -1   6 2170.48   53.49
  13  -1  -6 2160.88   48.70
  13   1  -6 2184.58   46.00
  13   1  -6 2193.88   54.39
 -13   1   6 2133.99   54.59
 -13   1   6 2139.19   56.19
 -13   1   6 2127.09   49.60
 -13   1   6 2220.68   54.49
  13   1  -6 2146.39   49.70
 -11  -1   6  101.69    8.10
  11  -1  -6   91.09    7.00
  11  -1  -6   74.29    5.90
 -11  -1   6  101.19    7.90
 -11  -1   6   83.19    8.20
  11   1  -6   90.09    8.10
 -11   1   6   77.99    8.40
 -11   1   6   75.29    7.70
  11   1  -6   89.19    7.00
 -11   1   6   89.49    6.50
 -11   1   6  101.39    8.50
  11   1  -6   89.89    6.50
   9  -1  -6   44.30    5.70
  -9  -1   6   47.90    5.50
  -9  -1   6   40.90    5.30
   9  -1  -6   39.10    4.80
   9   1  -6   38.60    4.70
  -9   1   6   36.20    5.10
   9   1  -6   42.50    4.60
  -9   1   6   25.00    4.40
  -9   1   6   39.10    5.30
   7  -1  -6  254.67   10.40
  -7  -1   6  246.78   10.10
  -7  -1   6  252.97    9.60
  -7  -1   6  260.57   10.80
   7  -1  -6  277.67   10.50
   7  -1  -6  250.87    9.50
  -7   1   6  244.58   10.70
   7   1  -6  281.77   10.60
  -7   1   6  257.37   10.40
  -7   1   6  258.37    9.60
   7   1  -6  260.77    9.30
   7   1  -6  266.17   10.30
   7   1  -6  284.77   10.80
   5  -1  -6 1511.55   36.30
  -5  -1   6 1564.14   37.20
  -5  -1   6 1602.34   36.40
  -5  -1   6 1536.45   37.80
   5  -1  -6 1624.64   37.70
   5  -1  -6 1567.34   37.00
   5   1  -6 1534.55   36.10
  -5   1   6 1587.14   36.30
   5   1  -6 1563.24   37.50
  -5   1   6 1563.24   37.90
  -5   1   6 1547.15   37.20
   5   1  -6 1593.44   37.20
   5   1  -6 1656.33   37.90
   3  -1  -6 2351.86   52.89
  -3  -1   6 2364.96   51.89
  -3  -1   6 2328.87   53.09
   3  -1  -6 2240.68   51.69
  -3  -1   6 2315.37   52.49
   3  -1  -6 2433.76   52.59
   3   1  -6 2265.87   51.69
   3   1  -6 2365.96   52.59
   3   1  -6 2467.95   53.99
   3   1  -6 2311.77   52.89
  -3   1   6 2322.57   52.49
  -3   1   6 2386.86   51.69
   1  -1  -6   61.29    5.40
  -1  -1   6   63.99    5.60
   1  -1  -6   69.09    4.60
  -1  -1   6   66.89    4.50
  -1  -1   6   73.79    4.50
   1  -1  -6   68.19    4.30
   1  -1  -6   67.19    4.40
   1   1  -6   60.79    4.50
  -1   1   6   66.99    4.60
   1   1  -6   70.39    4.70
  -1   1   6   68.79    4.60
   1   1  -6   61.89    5.50
   1   1  -6   62.79    4.20
  -1   1   6   74.19    4.30
  -1  -1  -6 2508.35   56.89
   1  -1   6 2390.76   56.19
   1  -1   6 2498.65   54.89
  -1  -1  -6 2447.46   54.69
  -1  -1  -6 2467.15   53.79
   1  -1   6 2457.85   54.49
   1  -1   6 2504.35   53.89
   1   1   6 2469.65   54.59
  -1   1  -6 2508.55   56.69
   1   1   6 2506.45   53.19
   1   1   6 2429.96   54.19
  -1   1  -6 2345.47   53.89
  -1   1  -6 2522.35   54.69
  -3  -1  -6 3060.49   66.19
  -3  -1  -6 3020.30   67.09
   3  -1   6 3124.39   67.29
  -3  -1  -6 3128.29   69.79
   3  -1   6 3090.59   67.49
   3  -1   6 3071.09   69.49
  -3  -1  -6 3098.89   66.79
  -3   1  -6 3165.08   67.79
  -3   1  -6 3063.79   67.19
   3   1   6 3102.09   67.09
  -3   1  -6 3049.20   69.49
  -3   1  -6 3057.39   66.59
   3   1   6 3047.50   66.79
  -5  -1  -6  775.72   19.90
   5  -1   6  754.22   20.10
   5  -1   6  747.13   20.50
   5  -1   6  707.73   21.80
  -5  -1  -6  746.63   18.80
  -5  -1  -6  759.02   19.40
   5  -1   6  742.03   19.90
  -5  -1  -6  739.93   21.80
  -5   1  -6  763.02   20.10
  -5   1  -6  753.42   19.30
   5   1   6  751.72   19.30
   5   1   6  751.62   19.90
   5   1   6  743.83   19.30
  -5   1  -6  768.52   20.40
  -5   1  -6  747.83   19.80
   5   1   6  755.42   19.50
  -5   1  -6  746.83   21.80
  -7  -1  -6  172.08    8.90
   7  -1   6  145.19    8.40
   7  -1   6  183.18    8.10
   7  -1   6  166.48    8.90
   7  -1   6  156.08    9.40
  -7  -1  -6  157.98    8.70
  -7  -1  -6  162.28    6.80
  -7  -1  -6  157.88    7.30
  -7  -1  -6  154.88    9.40
   7  -1   6  165.88    7.90
  -7   1  -6  156.38    7.70
   7   1   6  166.38    7.40
   7   1   6  176.58    8.30
  -7   1  -6  170.58    7.40
  -7   1  -6  161.28    9.50
   7   1   6  158.88    7.30
   7   1   6  154.88    8.10
  -7   1  -6  167.68    8.20
   7   1   6  164.38    6.60
  -7   1  -6  159.78    8.00
  -9  -1  -6  600.64   19.30
   9  -1   6  615.24   18.50
  -9  -1  -6  598.74   17.90
   9  -1   6  620.24   20.50
   9  -1   6  604.54   18.20
  -9   1  -6  563.64   20.40
   9   1   6  635.64   19.80
  -9   1  -6  610.94   19.80
  -9   1  -6  578.94   18.60
  -9   1  -6  602.74   18.20
   9   1   6  592.84   17.50
  -9   1  -6  597.44   17.40
   9   1   6  621.04   15.50
  11  -1   6  638.64   19.90
  11  -1   6  627.84   21.80
  11  -1   6  648.64   20.00
  11  -1   6  630.54   14.40
 -11  -1  -6  622.64   20.50
  11   1   6  623.44   19.10
  13  -1   6  943.51   27.40
  13  -1   6  906.81   29.20
  13  -1   6  914.81   27.40
  13   1   6  927.11   26.30
  15  -1   6   18.10    7.80
 -18  -2   6  263.47   20.50
  18  -2  -6  252.27   20.50
 -18  -2   6  278.97   18.90
 -18  -2   6  273.97   19.20
 -18   2   6  280.57   20.10
  18   2  -6  277.17   21.60
 -18   2   6  286.17   20.30
 -18   2   6  301.07   23.60
 -16  -2   6  314.07   17.90
 -16  -2   6  283.07   16.30
  16  -2  -6  279.87   17.70
 -16  -2   6  292.17   16.10
 -16   2   6  302.97   17.70
 -16   2   6  315.17   19.80
  16   2  -6  260.77   17.60
 -16   2   6  287.17   17.50
 -14  -2   6  249.88   14.60
 -14  -2   6  239.08   13.70
  14  -2  -6  252.97   11.50
  14  -2  -6  244.68   14.50
 -14  -2   6  254.67   13.30
 -14   2   6  285.37   11.20
 -14   2   6  274.97   14.80
 -14   2   6  278.57   14.90
  14   2  -6  269.57   15.30
 -14   2   6  273.07   16.00
  12  -2  -6   36.50    5.10
 -12  -2   6   40.30    6.20
 -12  -2   6   34.30    5.90
  12  -2  -6   41.20    5.50
 -12  -2   6   37.60    5.40
 -12   2   6   43.50    6.80
 -12   2   6   42.20    6.30
 -12   2   6   44.30    5.80
 -12   2   6   35.50    5.90
  12   2  -6   39.70    4.70
  12   2  -6   41.70    6.70
 -10  -2   6  856.11   24.90
  10  -2  -6  873.01   22.60
 -10  -2   6  906.81   24.90
  10  -2  -6  843.32   23.00
  10  -2  -6  803.02   24.50
 -10  -2   6  837.02   23.90
  10   2  -6  842.62   21.80
 -10   2   6  865.11   22.80
  10   2  -6  703.23   22.70
 -10   2   6  876.91   25.60
  10   2  -6  826.92   24.50
 -10   2   6  895.41   25.50
 -10   2   6  830.22   24.40
  -8  -2   6 4127.89   91.29
   8  -2  -6 4240.28   90.49
  -8  -2   6 4096.19   92.09
   8  -2  -6 4126.69   91.99
   8  -2  -6 4250.67   91.39
  -8  -2   6 4223.98   90.19
   8   2  -6 4167.98   89.39
   8   2  -6 4082.09   91.59
  -8   2   6 4093.19   90.39
  -8   2   6 4320.57   91.89
  -8   2   6 4051.49   92.49
   8   2  -6 4342.57   89.89
  -8   2   6 4152.08   92.39
  -6  -2   6  178.68    8.70
   6  -2  -6  198.48    8.80
  -6  -2   6  192.08    8.00
   6  -2  -6  191.18    8.40
   6  -2  -6  177.78    7.70
  -6  -2   6  193.58    8.50
   6   2  -6  193.38    8.60
   6   2  -6  189.58    8.50
  -6   2   6  193.88    8.30
  -6   2   6  191.38    8.60
   6   2  -6  191.98    8.90
  -6   2   6  186.08    7.70
   6   2  -6  195.38    7.50
  -6   2   6  191.28    9.00
   4  -2  -6  774.42   20.90
  -4  -2   6  764.42   20.00
  -4  -2   6  796.12   21.40
   4  -2  -6  815.72   20.70
  -4  -2   6  769.72   20.80
   4  -2  -6  782.02   20.10
   4   2  -6  784.62   20.80
  -4   2   6  779.22   20.80
   4   2  -6  801.52   21.40
   4   2  -6  761.22   19.80
  -4   2   6  794.12   21.30
  -4   2   6  794.52   19.80
   4   2  -6  769.52   21.00
   2  -2  -6 1822.12   42.00
   2  -2  -6 1901.51   43.10
  -2  -2   6 1810.72   43.70
  -2  -2   6 1876.31   43.30
  -2  -2   6 1893.91   42.30
   2  -2  -6 1961.90   42.80
  -2  -2   6 1849.81   42.90
  -2   2   6 1934.21   41.80
  -2   2   6 1801.92   42.80
  -2   2   6 1841.82   42.50
   2   2  -6 1858.41   42.20
   2   2  -6 1856.81   44.00
   2   2  -6 1896.31   43.00
   2   2  -6 1934.41   43.30
   0  -2   6  856.81   22.80
   0  -2   6  858.81   22.50
   0  -2  -6  909.11   21.90
   0  -2  -6  904.61   22.60
   0  -2   6  909.71   24.20
   0  -2  -6  924.61   22.40
   0  -2   6  880.21   22.10
   0   2   6  891.51   21.20
   0   2  -6  881.81   22.20
   0   2   6  876.61   22.90
   0   2  -6  910.91   22.80
   0   2  -6  918.61   23.00
   0   2   6  916.61   22.30
   0   2   6  914.41   22.60
   0   2  -6  917.11   24.30
   2  -2   6  264.37   11.00
   2  -2   6  284.37   10.00
  -2  -2  -6  294.57   11.40
  -2  -2  -6  282.47    9.10
   2  -2   6  275.17    9.20
   2  -2   6  292.47    9.90
  -2  -2  -6  274.87    9.30
  -2  -2  -6  284.67    8.80
  -2   2  -6  291.47    9.80
  -2   2  -6  280.47    9.90
  -2   2  -6  284.97   11.20
   2   2   6  261.87    9.10
   2   2   6  276.27    9.80
   2   2   6  280.97    9.10
  -4  -2  -6    9.60    3.30
  -4  -2  -6    7.00    1.80
  -4  -2  -6   10.00    1.90
   4  -2   6    8.00    2.90
   4  -2   6   11.60    3.50
   4  -2   6    7.00    2.40
  -4  -2  -6    9.40    2.10
   4   2   6    9.80    2.50
  -4   2  -6    7.10    3.20
  -4   2  -6    7.60    2.40
  -4   2  -6    5.10    2.00
   4   2   6    6.10    1.90
  -4   2  -6    4.20    2.20
   6  -2   6  869.11   25.10
   6  -2   6  883.61   23.00
   6  -2   6  859.51   23.70
  -6  -2  -6  875.31   22.20
  -6  -2  -6  851.71   21.20
  -6  -2  -6  833.02   24.50
   6  -2   6  853.41   24.10
  -6  -2  -6  884.91   21.80
   6   2   6  814.62   22.20
   6   2   6  903.31   22.30
   6   2   6  868.81   21.70
  -6   2  -6  876.71   22.30
  -6   2  -6  882.91   23.40
  -6   2  -6  859.01   24.70
  -6   2  -6  897.31   23.20
  -6   2  -6  883.51   22.30
   6   2   6  853.51   21.60
   8  -2   6 1542.05   41.70
  -8  -2  -6 1632.94   37.30
  -8  -2  -6 1577.54   37.60
   8  -2   6 1584.94   40.90
   8  -2   6 1625.14   38.60
  -8  -2  -6 1564.44   39.90
   8   2   6 1626.44   37.10
   8   2   6 1592.84   37.20
  -8   2  -6 1629.34   38.80
  -8   2  -6 1580.94   39.00
   8   2   6 1586.74   36.10
  -8   2  -6 1600.94   37.90
  -8   2  -6 1580.54   37.90
  -8   2  -6 1571.04   40.20
  10  -2   6  774.92   22.90
  10  -2   6  775.82   23.30
 -10  -2  -6  760.42   23.30
  10  -2   6  788.42   18.80
  10  -2   6  803.82   25.30
 -10  -2  -6  809.82   22.10
 -10   2  -6  789.92   23.10
 -10   2  -6  823.72   22.30
  10   2   6  757.52   22.30
 -10   2  -6  800.22   23.50
  10   2   6  813.22   19.40
  10   2   6  808.02   21.70
  10   2   6  812.42   21.60
  12  -2   6  463.45   17.10
  12  -2   6  459.75   17.70
 -12  -2  -6  421.46   16.80
  12  -2   6  467.65   18.90
  12   2   6  482.75   16.80
  12   2   6  405.46   18.50
  14  -2   6  811.12   28.40
  14  -2   6  862.11   26.80
 -17  -3   6   15.50    7.30
 -17  -3   6   10.70    7.60
 -17  -3   6   18.10    8.80
  17  -3  -6   -9.20    8.40
 -17   3   6   -7.70    8.70
 -17   3   6   -0.50   10.40
  17   3  -6   12.50    9.70
 -17   3   6    5.40    8.80
  15  -3  -6  500.95   18.00
 -15  -3   6  527.15   20.60
  15  -3  -6  512.95   21.70
 -15  -3   6  526.45   21.40
 -15  -3   6  532.75   20.10
  15   3  -6  537.05   22.30
 -15   3   6  517.15   16.60
 -15   3   6  517.05   23.50
 -15   3   6  515.75   22.00
 -15   3   6  531.25   21.80
  13  -3  -6  111.89    8.80
 -13  -3   6  112.89    9.70
  13  -3  -6  124.89    9.10
 -13  -3   6  129.79    9.40
 -13  -3   6  116.69   10.30
 -13   3   6  118.19   10.70
  13   3  -6  123.09   10.90
 -13   3   6  113.29   13.50
 -13   3   6  121.59   11.90
 -13   3   6  113.09    8.00
  11  -3  -6  253.77   11.10
 -11  -3   6  250.37   12.40
 -11  -3   6  256.47   11.60
  11  -3  -6  241.18   11.00
 -11  -3   6  249.08   11.80
  11   3  -6  253.87    9.50
 -11   3   6  266.07   12.80
 -11   3   6  274.37   13.00
 -11   3   6  248.88   13.30
  11   3  -6  263.17    7.10
 -11   3   6  253.57   10.60
  11   3  -6  252.97   12.60
   9  -3  -6    7.80    3.20
   9  -3  -6   -3.40    2.60
   9  -3  -6    0.80    2.50
  -9  -3   6    0.10    2.90
  -9  -3   6    6.90    3.40
  -9   3   6    1.50    2.90
  -9   3   6    0.10    3.10
  -9   3   6    4.70    3.60
   9   3  -6    8.40    3.60
  -9   3   6    3.70    2.70
   9   3  -6   -0.20    2.30
  -7  -3   6  459.75   15.30
  -7  -3   6  435.76   13.70
  -7  -3   6  438.46   14.40
   7  -3  -6  457.55   14.60
   7  -3  -6  465.45   14.10
   7  -3  -6  453.45   15.00
  -7   3   6  456.45   15.50
  -7   3   6  453.55   14.30
   7   3  -6  415.76   14.60
   7   3  -6  459.65   16.90
  -7   3   6  444.76   13.80
  -7   3   6  462.95   15.40
   7   3  -6  443.06   14.50
   7   3  -6  459.75   13.00
  -7   3   6  440.26   14.80
  -5  -3   6  647.24   18.80
   5  -3  -6  646.74   18.50
   5  -3  -6  647.24   18.00
  -5  -3   6  661.83   17.50
  -5  -3   6  645.44   18.20
   5  -3  -6  651.23   17.50
   5   3  -6  651.83   18.10
  -5   3   6  656.03   18.30
   5   3  -6  629.44   16.80
   5   3  -6  626.94   18.00
  -5   3   6  626.74   18.20
  -5   3   6  644.94   17.20
   5   3  -6  625.34   18.20
   3  -3  -6  299.47   10.10
  -3  -3   6  301.17   10.00
  -3  -3   6  295.47   10.40
  -3  -3   6  283.77   10.70
  -3  -3   6  309.07   10.80
   3  -3  -6  298.17   10.30
   3  -3  -6  281.87    9.60
  -3   3   6  300.47    9.50
  -3   3   6  289.67   10.50
  -3   3   6  292.17   10.20
   3   3  -6  299.97    9.70
   3   3  -6  294.57   10.50
   3   3  -6  299.67   10.90
   3   3  -6  285.67   10.30
  -3   3   6  279.57   10.20
   1  -3  -6  112.59    5.40
   1  -3  -6  112.39    5.70
  -1  -3   6  120.49    6.30
  -1  -3   6  121.19    6.90
   1  -3  -6  116.99    5.80
  -1  -3   6  113.59    5.80
  -1  -3   6  108.99    5.90
  -1   3   6  119.09    5.90
   1   3  -6  120.99    6.90
  -1   3   6  104.29    6.10
   1   3  -6  121.09    5.80
   1   3  -6  118.39    6.10
   1   3  -6  118.09    6.00
  -1   3   6  120.59    5.10
  -1   3   6  112.89    5.60
  -1  -3  -6 1454.25   32.90
   1  -3   6 1401.56   33.60
   1  -3   6 1469.05   34.70
  -1  -3  -6 1487.15   33.60
  -1  -3  -6 1404.96   33.60
   1  -3   6 1459.35   36.20
   1  -3   6 1431.36   34.20
  -1   3  -6 1397.26   33.60
   1   3   6 1455.35   34.60
  -1   3  -6 1457.65   35.90
   1   3   6 1478.25   31.70
   1   3   6 1448.26   33.30
  -1   3  -6 1513.25   34.80
  -1   3  -6 1466.15   34.30
   3  -3   6  606.94   17.90
   3  -3   6  611.44   17.40
  -3  -3  -6  626.44   16.60
  -3  -3  -6  637.84   16.30
   3  -3   6  644.24   17.90
   3  -3   6  627.34   19.30
  -3  -3  -6  637.84   15.80
  -3  -3  -6  615.94   19.20
   3   3   6  636.24   16.50
  -3   3  -6  619.64   19.10
   3   3   6  614.14   16.20
   3   3   6  641.34   17.40
  -3   3  -6  636.94   17.60
  -3   3  -6  608.74   16.90
  -3   3  -6  638.34   17.90
   5  -3   6   -0.40    3.00
  -5  -3  -6    8.30    3.30
  -5  -3  -6    3.70    1.70
  -5  -3  -6    4.80    1.80
   5  -3   6    7.10    2.80
   5  -3   6    5.00    2.60
  -5  -3  -6    0.80    1.70
   5  -3   6    4.90    3.00
  -5   3  -6    1.90    2.00
   5   3   6    2.70    1.90
  -5   3  -6    6.50    2.60
   5   3   6    3.40    2.00
   5   3   6    3.30    1.90
  -5   3  -6    5.90    2.30
   5   3   6    2.30    1.90
  -5   3  -6    0.00    2.40
  -5   3  -6    2.10    3.50
   7  -3   6  196.78    9.30
   7  -3   6  196.08   10.10
  -7  -3  -6  197.98   10.40
   7  -3   6  197.58   10.80
  -7  -3  -6  185.68    7.70
  -7  -3  -6  186.58    7.10
   7  -3   6  178.58    8.90
  -7  -3  -6  189.58    7.50
   7   3   6  196.38    7.70
   7   3   6  195.78    7.60
  -7   3  -6  186.78    8.40
  -7   3  -6  201.18    9.40
   7   3   6  208.58   12.00
  -7   3  -6  202.48    9.50
   7   3   6  196.08    7.80
  -7   3  -6  178.18   10.60
  -9  -3  -6    3.30    4.40
   9  -3   6   14.10    4.00
   9  -3   6    7.30    4.60
   9  -3   6    5.10    3.40
  -9  -3  -6   14.30    3.00
   9   3   6    9.20    3.70
  -9   3  -6    4.60    3.50
  -9   3  -6    6.50    3.40
  -9   3  -6    7.40    4.00
   9   3   6   10.50    2.80
   9   3   6   11.20    3.10
   9   3   6    5.50    2.70
  11  -3   6  712.53   24.30
  11  -3   6  718.23   22.80
  11  -3   6  689.93   22.20
 -11  -3  -6  696.53   22.00
  11   3   6  732.63   20.10
  11   3   6  676.73   20.90
 -11   3  -6  730.83   21.40
  11   3   6  737.33   20.00
  13  -3   6  703.53   23.40
  13  -3   6  702.83   25.50
  13  -3   6  691.13   23.90
  15  -3   6   55.39    9.30
  18  -4  -6  155.68   18.80
 -18  -4   6  100.79   12.00
  18   4  -6  100.09   16.40
 -18   4   6  100.49   14.20
 -16  -4   6   93.79   10.00
  16  -4  -6   86.49   11.50
 -16  -4   6   86.69   10.40
 -16  -4   6   89.09   12.00
 -16   4   6   91.69   12.50
 -16   4   6   98.59   12.30
 -16   4   6   64.49   10.30
  16   4  -6   84.99   11.60
 -14  -4   6   24.70    5.90
  14  -4  -6   27.70    7.20
 -14  -4   6   32.20    6.60
 -14  -4   6   29.30    6.60
  14  -4  -6   26.70    6.50
 -14   4   6   37.80    5.50
 -14   4   6   26.60    7.40
 -14   4   6   15.30    7.60
 -14   4   6   14.00    6.00
  14   4  -6   34.70    7.70
 -12  -4   6  105.79   13.00
 -12  -4   6  108.79   10.60
  12  -4  -6  105.49    9.00
 -12  -4   6  121.99    9.10
 -12   4   6  110.09   11.30
 -12   4   6  128.69    8.20
 -12   4   6  119.09   10.60
  12   4  -6  137.59   10.50
 -12   4   6  119.59   11.70
  10  -4  -6 1115.99   29.30
 -10  -4   6 1115.79   29.50
  10  -4  -6 1127.59   31.10
  10  -4  -6 1119.49   29.60
 -10  -4   6 1134.39   30.60
 -10   4   6 1139.19   29.00
  10   4  -6 1067.59   30.50
 -10   4   6 1100.09   31.30
  10   4  -6 1137.19   25.30
 -10   4   6 1110.39   30.70
  10   4  -6 1132.99   26.70
 -10   4   6 1106.99   31.70
   8  -4  -6  524.75   16.80
   8  -4  -6  535.65   16.90
   8  -4  -6  525.55   16.10
   8  -4  -6  531.75   17.30
  -8  -4   6  522.95   16.50
  -8  -4   6  518.85   17.10
  -8   4   6  510.15   17.50
   8   4  -6  544.75   14.90
   8   4  -6  532.15   16.90
  -8   4   6  519.25   18.00
  -8   4   6  511.75   17.20
   8   4  -6  527.95   14.30
  -8   4   6  530.35   16.30
   6  -4  -6   32.30    4.10
  -6  -4   6   28.60    3.80
  -6  -4   6   39.40    4.90
   6  -4  -6   29.90    3.80
  -6  -4   6   35.60    4.70
   6  -4  -6   40.70    4.80
   6   4  -6   42.10    5.00
   6   4  -6   32.00    4.30
  -6   4   6   35.90    4.10
  -6   4   6   41.40    5.10
  -6   4   6   27.10    3.90
  -6   4   6   38.40    5.20
   6   4  -6   32.20    3.60
  -6   4   6   35.40    4.60
  -4  -4   6  101.39    6.20
   4  -4  -6  108.09    6.20
   4  -4  -6  105.79    5.60
  -4  -4   6  100.59    6.30
  -4  -4   6  105.39    5.90
  -4  -4   6  110.29    6.50
   4  -4  -6  104.09    5.90
   4   4  -6  113.09    6.80
   4   4  -6   89.69    6.10
  -4   4   6  110.19    5.60
  -4   4   6  104.69    6.30
   4   4  -6  110.29    5.40
  -4   4   6  102.29    6.20
   4   4  -6  100.59    6.30
  -4   4   6   99.09    6.20
  -2  -4   6   50.89    4.50
   2  -4  -6   51.19    4.00
   2  -4  -6   41.70    3.80
  -2  -4   6   44.20    4.40
   2  -4  -6   46.00    4.10
  -2  -4   6   52.89    4.50
  -2  -4   6   47.90    5.10
   2   4  -6   51.19    4.40
  -2   4   6   50.79    4.40
  -2   4   6   42.30    4.60
  -2   4   6   51.39    3.70
   2   4  -6   40.70    3.70
  -2   4   6   51.39    4.00
   2   4  -6   47.50    4.40
   2   4  -6   48.30    5.40
   0  -4   6  573.64   15.70
   0  -4   6  556.54   16.20
   0  -4  -6  563.44   15.40
   0  -4  -6  550.24   15.00
   0  -4   6  543.35   17.10
   0  -4   6  543.85   15.80
   0  -4  -6  534.75   14.50
   0   4  -6  551.94   17.10
   0   4   6  540.25   14.80
   0   4   6  540.95   13.20
   0   4  -6  547.35   15.30
   0   4  -6  536.85   15.70
   0   4   6  560.24   16.20
   0   4  -6  551.74   16.00
  -2  -4  -6  138.99    6.00
   2  -4   6  161.28    7.10
  -2  -4  -6  147.79    5.80
  -2  -4  -6  147.79    6.30
   2  -4   6  155.98    7.30
   2  -4   6  150.18    8.40
   2  -4   6  144.29    7.30
   2   4   6  151.18    7.20
  -2   4  -6  149.49    7.20
  -2   4  -6  146.39    8.40
  -2   4  -6  162.48    7.50
  -2   4  -6  150.68    6.80
   2   4   6  151.98    6.30
   2   4   6  155.18    6.20
   4  -4   6   -2.50    2.60
   4  -4   6    0.20    1.90
  -4  -4  -6    0.30    1.60
   4  -4   6    1.10    2.90
   4  -4   6    3.30    2.10
  -4  -4  -6    4.30    1.50
  -4  -4  -6    0.70    1.50
  -4   4  -6    2.50    2.30
   4   4   6    3.50    2.40
  -4   4  -6    0.90    1.80
  -4   4  -6    5.90    2.20
   4   4   6    1.60    1.80
  -4   4  -6    2.70    2.50
   4   4   6    1.70    1.60
  -4   4  -6    4.80    3.60
   6  -4   6   49.80    6.20
  -6  -4  -6   48.10    3.70
  -6  -4  -6   58.39    4.00
   6  -4   6   46.90    5.40
   6  -4   6   53.99    5.80
  -6  -4  -6   52.29    4.00
   6  -4   6   55.79    6.90
  -6  -4  -6   55.29    6.60
  -6   4  -6   52.59    7.10
  -6   4  -6   49.70    4.90
   6   4   6   47.10    4.40
  -6   4  -6   54.49    6.00
   6   4   6   67.79    5.10
  -6   4  -6   48.00    4.30
   6   4   6   50.29    4.60
   6   4   6   43.50    4.00
   6   4   6   50.59    4.20
  -6   4  -6   51.39    5.50
   8  -4   6 1807.42   43.70
  -8  -4  -6 1805.62   41.20
  -8  -4  -6 1795.82   44.70
   8  -4   6 1837.82   44.20
   8  -4   6 1830.42   46.10
  -8  -4  -6 1841.42   40.70
  -8   4  -6 1672.63   43.30
   8   4   6 1667.13   40.20
   8   4   6 1851.11   41.10
  -8   4  -6 1813.42   44.20
   8   4   6 1772.92   41.20
  -8   4  -6 1770.72   42.70
  -8   4  -6 1868.21   41.30
   8   4   6 1845.32   40.50
 -10  -4  -6   -3.80    4.90
  10  -4   6    5.20    4.80
  10  -4   6    0.60    4.20
  10  -4   6    3.00    4.00
  10   4   6   -0.20    2.90
  10   4   6   -0.70    3.30
 -10   4  -6    2.20    3.40
 -10   4  -6    0.00    4.20
  10   4   6    4.70    4.00
 -12  -4  -6  200.78   13.80
  12  -4   6  222.88   14.30
  12  -4   6  229.78   13.50
  12  -4   6  199.18   12.20
 -12   4  -6  226.18   11.40
  14  -4   6   24.80    7.50
  14  -4   6   22.60    9.30
 -14   4  -6   11.40    5.80
  16  -4   6   33.10   10.50
  16  -4   6   27.00   12.00
 -16   4  -6   49.60    8.50
 -17  -5   6   97.89   12.70
 -17  -5   6   92.79   10.90
 -17  -5   6   82.19   11.00
  17  -5  -6  108.99   13.10
 -17   5   6  118.29   14.70
 -17   5   6   61.49   12.30
  17   5  -6   88.39   14.10
 -17   5   6   77.39   15.10
 -15  -5   6  199.18   13.40
 -15  -5   6  202.58   14.30
  15  -5  -6  203.68   14.30
  15  -5  -6  224.28   15.60
 -15  -5   6  193.78   16.40
 -15   5   6  211.88   16.50
 -15   5   6  180.08   15.50
 -15   5   6  184.68   23.20
 -15   5   6  223.88   11.70
  15   5  -6  203.08   16.80
 -13  -5   6   45.10    6.50
 -13  -5   6   46.10    7.00
  13  -5  -6   49.99    6.90
 -13  -5   6   57.19    7.50
  13  -5  -6   53.59    7.50
 -13   5   6   34.00    6.80
  13   5  -6   35.80    7.20
 -13   5   6   58.59    9.50
 -13   5   6   50.49    8.20
 -13   5   6   59.89    6.60
 -11  -5   6  182.78    9.90
  11  -5  -6  202.38   11.30
 -11  -5   6  189.08   11.40
 -11  -5   6  180.48   10.40
  11  -5  -6  184.88   11.50
  11   5  -6  198.48   11.80
 -11   5   6  188.58    9.80
 -11   5   6  179.28   12.80
 -11   5   6  198.08   11.90
 -11   5   6  186.68   12.10
  -9  -5   6  156.68    9.10
   9  -5  -6  160.78    8.60
   9  -5  -6  170.58    9.50
  -9  -5   6  168.08    8.90
   9  -5  -6  164.38    9.80
  -9   5   6  157.78   10.50
  -9   5   6  179.88   10.40
  -9   5   6  168.88   10.20
   9   5  -6  164.78    6.60
  -9   5   6  152.98    8.50
   9   5  -6  169.48    9.60
  -7  -5   6  199.08    9.10
   7  -5  -6  206.68    9.70
   7  -5  -6  197.68    9.20
  -7  -5   6  173.18    8.50
  -7  -5   6  200.18    9.50
   7  -5  -6  202.08    9.90
   7  -5  -6  205.48    8.90
  -7   5   6  187.28    8.80
   7   5  -6  198.98    9.20
   7   5  -6  188.18    7.10
  -7   5   6  202.08   10.10
   7   5  -6  207.38    8.50
  -7   5   6  191.18    9.20
  -7   5   6  216.08   10.10
  -7   5   6  200.18   10.70
  -5  -5   6  200.68    8.70
   5  -5  -6  205.58    8.70
  -5  -5   6  201.58    9.00
  -5  -5   6  206.48    9.30
   5  -5  -6  206.98    8.90
  -5  -5   6  202.78    8.50
   5  -5  -6  201.58    8.30
  -5   5   6  206.78    9.00
  -5   5   6  196.98    9.20
  -5   5   6  212.08    8.10
   5   5  -6  200.58    8.30
  -5   5   6  200.88    9.20
   5   5  -6  193.08    9.10
   5   5  -6  208.68    9.00
   5   5  -6  189.78    8.80
  -5   5   6  209.28    9.30
   5   5  -6  198.68    7.30
  -3  -5   6    2.50    2.40
   3  -5  -6    4.50    2.10
  -3  -5   6    4.60    2.50
   3  -5  -6   -2.80    2.00
  -3  -5   6    2.90    2.00
   3  -5  -6    3.60    2.00
  -3  -5   6   -1.70    2.00
   3   5  -6    2.10    2.00
  -3   5   6    2.10    2.00
  -3   5   6    4.40    2.50
   3   5  -6    2.20    2.40
  -3   5   6    5.70    2.20
   3   5  -6    0.50    2.90
   3   5  -6   -1.50    1.80
  -1  -5   6  179.38    7.90
   1  -5  -6  179.58    7.40
  -1  -5   6  180.88    9.10
  -1  -5   6  183.38    7.80
   1  -5  -6  192.98    7.40
  -1  -5   6  180.78    8.20
   1  -5  -6  178.38    6.90
  -1   5   6  179.38    5.80
   1   5  -6  178.58    9.10
   1   5  -6  178.28    8.00
  -1   5   6  174.28    8.30
   1   5  -6  196.88    8.20
  -1   5   6  176.28    7.10
   1   5  -6  178.68    7.40
   1  -5   6   32.70    4.00
   1  -5   6   33.20    4.40
   1  -5   6   28.90    3.80
  -1  -5  -6   28.00    3.10
   1  -5   6   39.10    5.50
  -1  -5  -6   29.70    3.30
  -1  -5  -6   29.10    3.30
   1   5   6   29.80    3.50
  -1   5  -6   31.10    4.70
   1   5   6   28.90    4.00
  -1   5  -6   32.00    3.90
   1   5   6   28.80    3.30
  -1   5  -6   22.60    3.30
  -1   5  -6   21.30    3.20
  -3  -5  -6  355.06   10.40
  -3  -5  -6  368.76   10.90
   3  -5   6  349.67   12.50
   3  -5   6  361.46   14.20
   3  -5   6  365.56   12.50
  -3  -5  -6  361.46   10.20
  -3   5  -6  373.16   12.80
   3   5   6  381.16   12.60
  -3   5  -6  356.56   14.10
  -3   5  -6  330.27   12.30
  -3   5  -6  370.66   11.90
  -5  -5  -6   38.20    3.30
   5  -5   6   33.00    4.30
   5  -5   6   40.80    6.00
  -5  -5  -6   37.10    3.50
   5  -5   6   27.40    4.60
   5  -5   6   25.30    3.90
  -5  -5  -6   37.70    3.30
  -5   5  -6   40.30    4.50
  -5   5  -6   42.40    3.40
  -5   5  -6   39.50    4.70
   5   5   6   38.80    4.00
   5   5   6   34.40    4.60
  -5   5  -6   38.30    5.30
   5   5   6   39.80    3.80
  -7  -5  -6  247.28    8.20
   7  -5   6  254.77   12.30
  -7  -5  -6  260.67    8.70
   7  -5   6  252.77   11.40
   7  -5   6  266.67   13.40
   7  -5   6  265.17   11.40
  -7  -5  -6  257.07    8.20
  -7  -5  -6  264.57   12.70
   7   5   6  261.37   10.00
   7   5   6  252.57    8.70
  -7   5  -6  236.28   10.20
  -7   5  -6  265.77    8.80
  -7   5  -6  244.28   11.40
   7   5   6  253.17    8.50
   7   5   6  262.87    8.50
   9  -5   6    5.10    3.70
   9  -5   6    6.90    4.90
   9  -5   6   13.20    4.40
  -9  -5  -6    9.50    2.60
  -9  -5  -6   12.30    5.20
  -9   5  -6    7.30    3.30
  -9   5  -6    4.60    3.90
   9   5   6    7.70    2.90
   9   5   6    6.10    2.80
   9   5   6    7.30    3.20
 -11  -5  -6   76.99   10.60
  11  -5   6  105.59   11.60
  11  -5   6  106.89   10.30
  11  -5   6  115.69   10.10
 -11   5  -6   98.59    8.50
  13  -5   6  -12.20    5.80
  13  -5   6   -1.90    6.20
  13  -5   6    5.70    6.80
 -13   5  -6    0.60    5.00
  15  -5   6   11.80   10.10
  15  -5   6   14.30    8.80
 -15   5  -6   11.30    7.10
 -16  -6   6   61.09    9.20
  16  -6  -6   44.50   10.90
 -16  -6   6   62.09    9.20
 -16  -6   6   62.79    8.80
 -16   6   6   27.20   10.80
 -16   6   6   65.69   14.40
  16   6  -6   44.30   11.10
 -16   6   6   72.19   12.00
 -14  -6   6  114.39   10.90
 -14  -6   6   75.79    9.20
  14  -6  -6   88.99   12.20
 -14  -6   6   82.79   10.30
 -14   6   6   81.09    9.50
  14   6  -6   74.79   10.40
 -14   6   6   61.59   10.00
 -14   6   6   90.09   11.10
 -14   6   6   99.79   13.10
  12  -6  -6    3.10    4.50
 -12  -6   6    1.10    4.20
  12  -6  -6    5.10    5.00
 -12  -6   6   11.10    4.70
 -12  -6   6   -1.40    3.70
 -12   6   6   10.80    7.10
  12   6  -6    8.80    5.80
 -12   6   6    3.30    4.30
 -12   6   6   13.00    6.00
 -12   6   6    2.20    5.10
  10  -6  -6   67.79    7.00
  10  -6  -6   56.59    7.40
 -10  -6   6   63.59    6.60
  10  -6  -6   60.29    7.50
 -10  -6   6   51.89    6.90
 -10   6   6   60.99    8.20
 -10   6   6   50.89    7.00
 -10   6   6   45.90    6.90
 -10   6   6   59.69    6.50
  10   6  -6   55.19    6.80
  10   6  -6   61.49    4.60
   8  -6  -6   -3.40    3.50
   8  -6  -6    8.40    3.80
   8  -6  -6    6.00    3.60
  -8  -6   6    2.20    3.00
   8  -6  -6    2.60    2.90
  -8  -6   6   11.80    3.80
  -8   6   6    7.50    3.80
  -8   6   6    3.10    3.60
  -8   6   6    5.10    3.50
   8   6  -6    1.10    3.30
   8   6  -6    4.30    2.20
   8   6  -6    4.60    3.10
  -8   6   6    7.30    4.10
   6  -6  -6   67.99    6.10
   6  -6  -6   73.69    7.00
   6  -6  -6   60.09    5.70
   6  -6  -6   49.50    5.10
  -6  -6   6   53.89    5.70
  -6  -6   6   60.09    5.70
  -6  -6   6   57.49    5.90
  -6  -6   6   69.59    6.00
  -6   6   6   59.29    5.90
  -6   6   6   60.49    6.30
  -6   6   6   55.49    6.00
  -6   6   6   69.79    6.40
   6   6  -6   67.79    4.20
   6   6  -6   68.49    6.20
   6   6  -6   70.39    5.70
  -6   6   6   70.59    6.60
  -4  -6   6  132.19    8.00
  -4  -6   6  154.48    8.00
   4  -6  -6  153.38    7.20
   4  -6  -6  158.08    7.60
  -4  -6   6  156.98    7.60
  -4  -6   6  155.98    7.80
   4  -6  -6  137.29    7.30
  -4   6   6  154.18    7.00
   4   6  -6  145.09    6.80
  -4   6   6  152.08    7.80
   4   6  -6  155.28    8.30
  -4   6   6  167.58    8.50
  -4   6   6  148.79    7.90
   4   6  -6  159.88    6.30
  -4   6   6  146.19    7.90
  -2  -6   6   30.50    4.20
  -2  -6   6   23.30    4.40
   2  -6  -6   20.80    3.00
   2  -6  -6   26.20    3.20
   2  -6  -6   24.80    3.30
  -2  -6   6   22.80    3.40
  -2  -6   6   29.30    4.10
   2   6  -6   21.80    3.10
  -2   6   6   22.20    3.10
  -2   6   6   25.20    3.60
  -2   6   6   26.40    3.00
   2   6  -6   23.40    4.20
   2   6  -6   32.90    4.20
   2   6  -6   21.80    3.60
  -2   6   6   31.60    4.60
   0  -6  -6  228.88    8.10
   0  -6   6  222.08    9.20
   0  -6  -6  229.48    8.30
   0  -6   6  220.68   10.60
   0  -6   6  214.58    9.30
   0  -6   6  229.68    9.30
   0  -6  -6  233.78    8.00
   0  -6  -6  214.48    9.60
   0   6  -6  235.48   10.90
   0   6  -6  215.18    8.60
   0   6  -6  229.28    9.50
   0   6   6  208.58    9.50
   0   6   6  223.98    8.10
   0   6  -6  213.78    9.20
   0   6   6  223.18    8.50
   2  -6   6    3.30    3.30
  -2  -6  -6    5.20    1.80
   2  -6   6    3.50    2.50
   2  -6   6    3.50    2.80
   2  -6   6    0.80    2.20
   2  -6   6    7.40    3.60
  -2  -6  -6    2.40    1.80
  -2  -6  -6    2.80    1.80
  -2  -6  -6    6.20    3.20
  -2   6  -6   -1.40    3.90
   2   6   6    1.70    2.50
  -2   6  -6   11.10    3.50
   2   6   6    2.10    1.70
  -2   6  -6   -0.80    2.30
  -2   6  -6    4.40    2.50
  -4  -6  -6  217.08    6.90
   4  -6   6  193.78    9.60
  -4  -6  -6  215.38    7.10
  -4  -6  -6  216.88    9.30
  -4  -6  -6  205.18    7.30
   4  -6   6  209.78    9.60
   4  -6   6  216.48   11.40
  -4   6  -6  209.08    9.00
  -4   6  -6  207.48    9.90
   4   6   6  206.08    7.00
   4   6   6  213.28    6.70
   4   6   6  199.28    9.30
  -6  -6  -6  164.38    6.10
   6  -6   6  171.58    9.20
   6  -6   6  176.68   11.20
   6  -6   6  167.28    9.40
   6  -6   6  181.88   10.10
  -6  -6  -6  155.38    8.60
  -6  -6  -6  180.58    6.10
   6   6   6  162.38    8.50
  -6   6  -6  165.78    8.50
  -6   6  -6  167.78    9.80
   6   6   6  174.08    6.30
  -8  -6  -6   34.20    6.50
   8  -6   6   45.50    6.20
  -8  -6  -6   48.00    4.60
   8  -6   6   38.70    6.00
   8  -6   6   30.90    6.30
   8   6   6   41.10    4.30
   8   6   6   36.90    4.80
   8   6   6   35.70    4.30
  -8   6  -6   44.70    5.50
  10  -6   6   90.89    9.90
  10  -6   6  108.39   11.70
 -10  -6  -6  102.29   11.40
  10  -6   6  105.39    9.70
 -10   6  -6   98.89    8.60
  12  -6   6    0.70    6.60
  12  -6   6   -4.70    5.90
  12  -6   6   -3.60    5.70
 -12   6  -6    3.10    5.10
  14  -6   6    3.40    8.10
  14  -6   6   25.50   10.30
  14  -6   6    7.90    7.70
 -14   6  -6   14.80    6.90
  16  -6   6  173.28   19.60
  16  -6   6  155.48   17.90
 -16   6  -6  202.08   16.10
  15  -7  -6  145.49   16.40
 -15  -7   6  125.39   14.20
 -15  -7   6  125.29   12.60
  15  -7  -6  172.98   15.50
 -15  -7   6  154.08   12.10
  15   7  -6  128.29   16.80
 -15   7   6  132.69   17.90
 -15   7   6  160.78   17.40
 -15   7   6  121.29   13.90
 -13  -7   6  315.37   14.60
  13  -7  -6  299.97   14.90
 -13  -7   6  302.97   13.70
 -13  -7   6  310.07   14.90
 -13   7   6  308.07   17.70
 -13   7   6  300.87   20.30
 -13   7   6  347.77   18.20
  13   7  -6  305.87   17.30
 -13   7   6  315.87   14.30
  11  -7  -6  395.46   21.00
 -11  -7   6  394.76   15.70
  11  -7  -6  375.66   17.10
  11  -7  -6  376.96   15.50
 -11  -7   6  399.76   14.70
 -11   7   6  382.06   17.50
  11   7  -6  382.66   16.80
 -11   7   6  391.26   17.50
 -11   7   6  400.66   15.30
 -11   7   6  410.66   19.30
   9  -7  -6   11.00    3.90
  -9  -7   6    3.70    3.50
  -9  -7   6    9.70    3.60
   9  -7  -6    8.50    4.60
   9  -7  -6   15.30    4.20
   9   7  -6    9.40    3.60
  -9   7   6    8.80    5.00
  -9   7   6    6.80    4.20
   9   7  -6   12.00    4.50
  -9   7   6   15.30    5.30
  -9   7   6   11.40    5.30
   7  -7  -6  730.83   23.20
  -7  -7   6  733.03   21.00
   7  -7  -6  739.93   21.00
  -7  -7   6  757.12   21.00
   7  -7  -6  726.03   21.30
   7  -7  -6  725.83   22.10
  -7  -7   6  733.43   21.80
   7   7  -6  729.53   21.10
  -7   7   6  742.53   22.20
  -7   7   6  693.33   22.40
   7   7  -6  768.62   20.30
  -7   7   6  724.33   21.80
   7   7  -6  749.03   16.80
  -7   7   6  697.03   20.20
  -7   7   6  739.53   22.50
  -5  -7   6  220.88    9.80
   5  -7  -6  244.68   10.30
   5  -7  -6  232.38    9.50
  -5  -7   6  234.08   10.30
  -5  -7   6  218.48    9.70
   5  -7  -6  256.37   11.80
  -5  -7   6  230.68   10.40
   5  -7  -6  217.38    9.50
  -5   7   6  224.38   10.40
  -5   7   6  233.28    8.90
  -5   7   6  221.58   10.50
   5   7  -6  233.38    7.50
   5   7  -6  237.08    9.20
  -5   7   6  229.88   10.20
  -5   7   6  222.38   10.60
   5   7  -6  233.68   10.50
  -3  -7   6   38.30    4.90
  -3  -7   6   45.70    5.00
   3  -7  -6   40.40    4.30
  -3  -7   6   38.00    5.40
   3  -7  -6   36.70    4.70
  -3  -7   6   37.10    4.60
   3  -7  -6   40.50    4.50
  -3   7   6   41.30    5.50
  -3   7   6   38.10    4.70
  -3   7   6   41.30    5.00
   3   7  -6   36.30    4.00
   3   7  -6   35.10    5.50
   3   7  -6   43.20    4.00
   1  -7  -6  563.84   15.70
  -1  -7   6  565.34   17.00
   1  -7  -6  591.14   16.50
  -1  -7   6  597.34   17.50
   1  -7  -6  608.84   16.10
  -1  -7   6  574.64   19.00
  -1  -7   6  593.04   17.80
  -1   7   6  582.24   16.30
  -1   7   6  599.54   16.00
  -1   7   6  583.74   16.20
   1   7  -6  572.24   16.00
  -1   7   6  576.84   18.20
   1   7  -6  554.64   18.90
   1   7  -6  592.14   14.00
  -1  -7  -6   42.10    3.80
  -1  -7  -6   41.60    3.80
   1  -7   6   39.40    5.10
   1  -7   6   39.80    5.20
  -1  -7  -6   35.70    3.80
   1  -7   6   32.80    5.20
  -1   7  -6   41.00    4.80
   1   7   6   33.30    4.70
   1   7   6   35.60    4.00
   1   7   6   39.90    4.10
   3  -7   6  926.01   25.70
  -3  -7  -6  919.51   21.90
  -3  -7  -6  931.11   22.10
   3  -7   6  944.91   27.90
  -3  -7  -6  938.21   22.60
   3  -7   6  923.41   25.30
   3   7   6  949.51   21.70
   3   7   6  974.10   21.10
  -3   7  -6  916.61   24.30
   3   7   6  924.21   25.60
   5  -7   6  304.67   13.20
   5  -7   6  286.47   12.50
   5  -7   6  298.47   14.30
  -5  -7  -6  297.77    8.70
   5  -7   6  296.87   12.20
  -5  -7  -6  289.17    9.00
  -5  -7  -6  299.67    8.20
   5   7   6  289.27    8.00
   5   7   6  278.47   11.80
  -5   7  -6  301.87   11.50
   5   7   6  298.67    8.20
  -7  -7  -6   59.69    4.30
   7  -7   6   67.69    8.60
  -7  -7  -6   65.29    4.10
   7  -7   6   61.69    8.20
   7  -7   6   66.99    7.70
   7  -7   6   61.59    7.20
  -7   7  -6   58.09    6.30
   9  -7   6  473.95   18.30
   9  -7   6  456.05   17.60
   9  -7   6  439.86   23.10
  11  -7   6  453.65   19.60
  11  -7   6  435.96   18.60
  11  -7   6  466.35   21.70
 -11   7  -6  454.55   17.40
  13  -7   6   -6.20    8.60
  13  -7   6   -1.70    6.50
  13  -7   6   -6.10    7.00
 -13   7  -6   10.30    6.20
  15  -7   6   17.30    9.60
  15  -7   6    9.30   11.60
 -15   7  -6    3.70    8.30
 -14  -8   6   24.10    6.70
 -14  -8   6   14.40    6.30
  14  -8  -6   25.50    9.70
 -14  -8   6   20.30    6.10
 -14   8   6   12.70   10.20
  14   8  -6    0.90    8.80
 -14   8   6   17.40   10.10
 -12  -8   6  262.37   12.60
  12  -8  -6  274.67   14.30
 -12  -8   6  269.47   13.50
 -12  -8   6  254.27   12.90
  12  -8  -6  282.47   16.70
 -12   8   6  279.07   16.60
 -12   8   6  278.87   16.40
 -12   8   6  248.08   18.50
  12   8  -6  271.57   15.90
  10  -8  -6  958.40   27.10
 -10  -8   6  913.01   25.40
 -10  -8   6  930.31   26.70
 -10   8   6  899.21   29.60
 -10   8   6  921.21   27.00
  10   8  -6  905.01   27.50
 -10   8   6  890.71   30.70
 -10   8   6  936.41   28.70
  -8  -8   6  236.08   10.60
  -8  -8   6  246.78   10.90
   8  -8  -6  232.08   11.20
   8  -8  -6  238.08   13.40
  -8  -8   6  262.67   16.60
   8  -8  -6  263.37   12.60
   8  -8  -6  230.98   12.00
  -8   8   6  275.07   12.40
   8   8  -6  255.77   11.90
  -8   8   6  254.07   13.00
  -8   8   6  258.57   13.10
   8   8  -6  248.18   10.80
   6  -8  -6    3.50    3.80
  -6  -8   6   17.50    3.90
   6  -8  -6   12.50    3.40
   6  -8  -6    3.00    3.40
   6  -8  -6    4.70    3.40
  -6  -8   6    6.80    3.70
  -6  -8   6    9.40    3.40
  -6   8   6   12.00    4.10
   6   8  -6   14.90    3.70
  -6   8   6    7.20    3.60
  -6   8   6   -1.30    3.60
  -6   8   6    5.10    3.90
  -6   8   6    3.20    3.70
   6   8  -6    9.90    4.50
  -4  -8   6   31.30    4.50
   4  -8  -6   35.20    5.70
   4  -8  -6   46.10    5.30
   4  -8  -6   35.70    4.50
  -4  -8   6   33.10    5.40
   4  -8  -6   47.20    5.20
  -4  -8   6   35.50    4.60
  -4   8   6   33.90    4.90
  -4   8   6   43.80    4.40
   4   8  -6   35.10    4.00
  -4   8   6   35.40    5.10
   4   8  -6   34.80    3.80
  -4   8   6   36.20    5.60
   4   8  -6   37.40    5.80
  -2  -8   6  677.13   19.80
  -2  -8   6  688.23   20.20
   2  -8  -6  697.73   18.70
   2  -8  -6  670.43   18.30
   2  -8  -6  640.24   21.40
  -2  -8   6  690.43   21.70
   2  -8  -6  680.43   19.00
   2   8  -6  701.13   16.60
  -2   8   6  694.33   18.80
  -2   8   6  688.83   19.10
  -2   8   6  686.93   21.20
   2   8  -6  678.93   22.50
   2   8  -6  678.53   17.50
  -2   8   6  687.73   18.90
   0  -8  -6 2107.09   48.30
   0  -8   6 2152.68   49.99
   0  -8  -6 2170.88   47.80
   0  -8   6 2081.99   50.29
   0  -8  -6 2119.09   47.60
   0  -8   6 2145.59   52.69
   0   8   6 2160.48   51.39
   0   8   6 2193.78   47.70
   0   8   6 2176.08   47.90
   0   8  -6 2148.39   48.40
   2  -8   6  244.58   11.10
  -2  -8  -6  244.38    8.30
  -2  -8  -6  236.98    8.00
   2  -8   6  239.88   12.70
  -2  -8  -6  240.48    8.50
   2  -8   6  255.97   10.80
   2   8   6  242.98   11.40
   2   8   6  254.27    7.90
  -2   8  -6  252.47   10.10
   2   8   6  242.98    7.90
   2   8   6  259.27    7.50
   4  -8   6  428.66   15.80
   4  -8   6  430.46   15.50
  -4  -8  -6  430.86   10.70
   4  -8   6  418.86   17.60
   4  -8   6  412.46   16.50
  -4  -8  -6  444.56   11.80
  -4  -8  -6  440.66   11.90
   4   8   6  446.56   10.50
   4   8   6  429.36   10.60
  -4   8  -6  433.86   14.50
   6  -8   6 1213.38   32.10
   6  -8   6 1196.68   32.60
   6  -8   6 1192.18   33.60
  -6  -8  -6 1194.08   26.30
  -6  -8  -6 1162.48   26.50
   6  -8   6 1144.59   34.60
  -6   8  -6 1129.89   30.30
   8  -8   6  348.07   17.40
  -8  -8  -6  348.17    9.90
   8  -8   6  333.07   15.40
  -8   8  -6  322.87   13.60
  10  -8   6   63.59    9.70
  10  -8   6   59.69    8.20
  10  -8   6   58.59    7.90
 -10   8  -6   59.19    7.40
  12  -8   6   49.90    8.60
  12  -8   6   57.69   10.80
  12  -8   6   45.10    9.60
 -12   8  -6   37.10    7.50
  14  -8   6  212.08   18.50
  14  -8   6  202.68   19.80
  14  -8   6  210.18   21.80
 -14   8  -6  236.58   16.00
  15  -9  -6   48.90   12.80
  15  -9  -6   66.89   11.20
 -15  -9   6   49.10    8.70
 -15  -9   6   55.49    8.00
 -15   9   6   54.29   13.10
 -15   9   6   70.29   14.10
  15   9  -6   48.30   13.10
 -13  -9   6 1006.60   28.40
 -13  -9   6 1057.79   30.20
 -13  -9   6 1046.00   29.70
  13  -9  -6 1009.30   34.60
  13   9  -6 1010.80   33.50
 -13   9   6 1033.70   34.80
 -13   9   6 1006.80   35.40
  11  -9  -6  923.01   27.70
  11  -9  -6  891.31   30.30
 -11  -9   6  891.71   25.20
 -11  -9   6  891.11   26.60
  11   9  -6  879.31   28.30
 -11   9   6  923.71   30.00
 -11   9   6  913.11   30.20
  -9  -9   6    6.00    3.90
   9  -9  -6    6.70    5.90
  -9  -9   6    8.10    4.30
   9  -9  -6    4.60    4.20
  -9  -9   6    1.60    4.20
  -9   9   6    0.80    5.10
   9   9  -6    9.80    5.30
  -9   9   6    4.10    5.90
  -9   9   6    1.10    7.30
  -9   9   6   -0.40    6.90
  -7  -9   6  686.03   21.00
   7  -9  -6  670.53   20.40
   7  -9  -6  648.54   20.70
   7  -9  -6  678.53   21.70
  -7  -9   6  669.33   20.70
  -7  -9   6  670.23   20.00
  -7   9   6  684.43   22.20
   7   9  -6  658.23   20.20
  -7   9   6  695.43   22.10
  -7   9   6  683.43   22.80
  -7   9   6  659.93   21.60
   7   9  -6  651.83   20.40
  -7   9   6  629.94   18.90
  -5  -9   6 2623.74   59.99
   5  -9  -6 2594.84   59.39
   5  -9  -6 2616.54   60.69
   5  -9  -6 2648.24   59.89
   5  -9  -6 2563.74   63.39
  -5  -9   6 2634.14   60.69
  -5  -9   6 2561.94   61.39
  -5   9   6 2681.53   60.89
   5   9  -6 2616.94   58.29
  -5   9   6 2673.53   56.39
  -5   9   6 2634.14   60.19
  -5   9   6 2609.14   62.09
   5   9  -6 2551.14   60.49
  -3  -9   6  730.83   22.90
   3  -9  -6  745.93   20.10
   3  -9  -6  704.93   23.40
   3  -9  -6  704.73   20.40
  -3  -9   6  706.83   21.20
  -3  -9   6  719.03   20.90
   3  -9  -6  722.03   19.90
  -3   9   6  723.73   20.20
  -3   9   6  741.93   22.90
  -3   9   6  696.33   20.40
  -3   9   6  735.63   20.80
   3   9  -6  722.63   18.10
   1  -9  -6   89.49    8.40
   1  -9  -6   80.19    5.50
  -1  -9   6   80.59    7.00
  -1  -9   6   79.59    8.40
  -1  -9   6   94.09    7.20
   1  -9  -6   85.09    5.60
   1  -9  -6   93.79    5.90
  -1   9   6   84.29    6.00
  -1   9   6   92.69    6.80
  -1   9   6   96.09    8.30
   1   9  -6   83.59    5.60
  -1   9   6   92.99    6.20
  -1  -9  -6  568.94   15.60
   1  -9   6  583.84   18.40
  -1  -9  -6  578.74   15.40
  -1  -9  -6  591.74   20.10
   1  -9   6  593.94   21.00
  -1  -9  -6  596.14   16.10
   1  -9   6  579.94   18.80
   1   9   6  582.24   15.50
   1   9   6  605.34   14.90
   1   9   6  594.54   15.20
   1   9   6  568.24   19.60
  -1   9  -6  572.24   16.80
  -3  -9  -6 1384.86   31.60
  -3  -9  -6 1388.66   31.50
   3  -9   6 1397.26   37.50
   3  -9   6 1383.16   35.50
  -3  -9  -6 1410.46   30.40
   3  -9   6 1375.76   36.00
   3  -9   6 1420.66   39.00
  -3   9  -6 1371.76   34.10
   3   9   6 1360.66   30.50
  -5  -9  -6 1121.39   25.60
   5  -9   6 1106.49   31.20
   5  -9   6 1094.99   30.60
   5  -9   6 1069.19   34.10
   5  -9   6 1143.49   32.70
  -5   9  -6 1165.38   29.60
   7  -9   6    8.60    6.30
   7  -9   6    1.60    4.40
   7  -9   6   -2.50    5.70
   7  -9   6    7.50    4.60
  -7  -9  -6    3.80    2.50
  -7   9  -6    8.00    4.40
   9  -9   6  881.31   27.90
  -9  -9  -6  860.81   26.00
   9  -9   6  886.41   31.30
  -9  -9  -6  874.01   21.00
   9  -9   6  921.31   37.20
  -9   9  -6  892.81   26.30
  11  -9   6  614.74   24.90
 -11  -9  -6  637.24   21.20
  11  -9   6  659.63   24.80
  11  -9   6  655.23   28.10
 -11   9  -6  663.13   22.70
  13  -9   6  704.83   29.00
  13  -9   6  746.53   32.30
  13  -9   6  679.83   27.50
 -13   9  -6  694.13   25.50
  14 -10  -6  111.09   15.50
 -14 -10   6  119.59   11.70
 -14 -10   6  126.19   12.60
  14  10  -6  124.89   15.00
 -14  10   6  161.68   19.80
 -14  10   6  129.19   17.10
  12 -10  -6   98.39   13.30
 -12 -10   6  114.39   10.00
 -12 -10   6  102.29   10.50
 -12  10   6   90.59   12.80
  12  10  -6  113.89   12.40
 -12  10   6  115.29   14.20
 -10 -10   6  583.84   18.50
  10 -10  -6  565.64   20.60
  10 -10  -6  594.44   24.80
 -10 -10   6  585.44   20.00
 -10  10   6  595.74   23.40
  10  10  -6  614.74   22.10
 -10  10   6  600.24   23.60
   8 -10  -6  594.84   23.60
  -8 -10   6  594.44   20.00
  -8 -10   6  620.04   19.80
   8 -10  -6  600.74   20.20
  -8 -10   6  606.24   19.00
  -8  10   6  598.34   21.70
   8  10  -6  619.34   20.30
  -8  10   6  623.44   22.10
  -6 -10   6 1173.78   31.60
   6 -10  -6 1194.78   35.20
  -6 -10   6 1153.78   32.10
   6 -10  -6 1179.28   30.70
  -6 -10   6 1103.79   32.30
  -6  10   6 1184.58   32.20
  -6  10   6 1190.38   31.90
   6  10  -6 1151.68   29.70
   4 -10  -6  292.67   11.90
  -4 -10   6  295.87   12.20
   4 -10  -6  278.67   11.40
  -4 -10   6  265.77   13.00
   4 -10  -6  276.17   16.50
   4 -10  -6  314.87   11.80
  -4 -10   6  291.07   13.90
  -4  10   6  278.87   12.90
  -4  10   6  284.67   12.50
  -4  10   6  257.37   12.20
   2 -10  -6 2437.26   59.19
  -2 -10   6 2354.36   58.19
  -2 -10   6 2354.26   55.99
   2 -10  -6 2374.76   53.49
   2 -10  -6 2351.26   53.39
   2 -10  -6 2357.36   54.19
  -2 -10   6 2343.37   55.09
   2  10  -6 2385.86   49.99
  -2  10   6 2439.26   53.59
   2  10  -6 2302.27   50.99
  -2  10   6 2324.67   53.79
  -2  10   6 2382.46   56.69
   0 -10   6  846.82   23.80
   0 -10  -6  816.02   26.00
   0 -10  -6  811.02   21.10
   0 -10  -6  822.92   21.60
   0 -10   6  791.22   23.90
   0 -10  -6  825.72   20.90
   0 -10   6  833.92   26.70
   0  10   6  817.52   21.00
   0  10  -6  838.82   20.50
   0  10   6  835.22   20.80
   0  10  -6  801.22   20.80
   0  10   6  837.02   20.50
  -2 -10  -6  155.38    7.00
  -2 -10  -6  162.78    6.10
  -2 -10  -6  157.18    7.10
   2 -10   6  153.58   10.70
   2 -10   6  161.08   10.80
   2 -10   6  171.88   12.20
  -2 -10  -6  166.08   10.80
   2 -10   6  184.08   10.40
   2  10   6  156.68    5.90
  -2  10  -6  152.58    8.70
  -2  10  -6  161.48    8.80
   4 -10   6  369.66   14.80
   4 -10   6  356.96   16.90
   4 -10   6  353.76   17.80
   4 -10   6  362.86   16.10
  -4 -10  -6  378.46   15.90
  -4 -10  -6  355.36   10.70
  -4  10  -6  371.76   13.80
   6 -10   6  959.00   29.00
  -6 -10  -6  940.71   22.50
   6 -10   6  950.40   28.30
   6 -10   6  922.21   31.40
  -6 -10  -6  912.71   28.00
  -6  10  -6  970.80   26.70
   8 -10   6  326.47   16.50
  -8 -10  -6  333.47   15.40
   8 -10   6  335.07   19.30
   8 -10   6  324.87   16.20
  -8  10  -6  361.06   15.40
  10 -10   6  226.98   16.20
  10 -10   6  238.88   15.70
 -10 -10  -6  234.08   13.50
  10 -10   6  240.08   19.60
 -10  10  -6  247.08   14.50
  12 -10   6   13.90   12.10
  12 -10   6   12.80    9.10
  12 -10   6   -4.90    8.30
 -12  10  -6  -11.80    7.40
 -13 -11   6  771.12   23.00
 -13 -11   6  793.32   25.10
  13 -11  -6  775.12   33.30
 -13  11   6  782.12   32.00
  13  11  -6  748.63   30.90
 -11 -11   6  660.23   19.90
  11 -11  -6  628.64   23.30
 -11 -11   6  608.24   21.30
  11 -11  -6  636.64   28.20
  11  11  -6  636.54   25.20
 -11  11   6  633.04   26.50
   9 -11  -6   27.30    6.30
  -9 -11   6   23.10    5.60
  -9 -11   6   17.40    5.00
   9 -11  -6   21.60    8.10
  -9  11   6   20.30    8.90
  -9  11   6   12.00    8.00
   9  11  -6   15.70    7.00
   7 -11  -6  600.84   20.10
  -7 -11   6  610.34   20.20
  -7 -11   6  609.04   21.10
   7 -11  -6  589.84   24.30
  -7 -11   6  592.24   18.90
  -7  11   6  591.54   22.00
  -7  11   6  591.64   21.70
  -5 -11   6 1759.92   46.40
   5 -11  -6 1836.42   49.30
  -5 -11   6 1824.32   44.90
  -5 -11   6 1768.82   43.70
   5 -11  -6 1749.43   43.50
  -5  11   6 1830.02   44.80
  -5  11   6 1823.52   45.00
  -3 -11   6  572.84   18.50
  -3 -11   6  575.34   21.40
   3 -11  -6  550.94   21.90
   3 -11  -6  554.64   17.30
  -3 -11   6  554.94   18.80
   3 -11  -6  543.65   17.50
  -3  11   6  559.94   18.50
  -3  11   6  566.24   18.10
  -1 -11   6   21.60    4.80
   1 -11  -6   27.50    3.70
   1 -11  -6   30.90    4.40
   1 -11  -6   29.50    4.20
   1 -11  -6   41.50    7.30
  -1 -11   6   34.70    7.50
  -1 -11   6   30.10    5.20
  -1  11   6   27.90    4.60
  -1 -11  -6  425.56   13.40
  -1 -11  -6  438.36   12.20
  -1 -11  -6  420.96   13.10
  -1 -11  -6  444.26   18.50
   1 -11   6  439.16   16.60
   1 -11   6  430.56   16.10
   1 -11   6  435.06   19.30
   1  11   6  429.86   14.00
  -1  11  -6  432.26   13.40
   3 -11   6  874.21   30.50
  -3 -11  -6  940.21   22.00
   3 -11   6  960.30   27.60
  -3 -11  -6  933.81   22.70
   3 -11   6  927.11   28.00
  -3  11  -6  972.80   25.30
   5 -11   6 1049.70   31.10
   5 -11   6 1027.80   34.20
  -5 -11  -6 1026.10   24.20
   5 -11   6 1038.90   30.30
  -5  11  -6 1036.60   28.30
   7 -11   6    5.50    6.00
   7 -11   6   11.60    6.20
  -7 -11  -6    7.70    6.50
   7 -11   6   10.80    7.30
  -7  11  -6   -2.40    6.50
  -9 -11  -6  551.24   21.50
   9 -11   6  575.14   27.00
   9 -11   6  590.64   23.30
   9 -11   6  547.05   23.40
  -9  11  -6  559.14   21.20
  11 -11   6 1050.19   34.30
  11 -11   6  975.60   38.40
  11 -11   6  990.80   34.70
 -11  11  -6 1000.00   31.60
  10 -12  -6  411.26   19.10
 -10 -12   6  409.96   16.60
  10 -12  -6  422.16   24.10
 -10 -12   6  390.26   15.10
 -10  12   6  413.66   22.80
   8 -12  -6  558.54   25.70
  -8 -12   6  541.05   17.90
  -8 -12   6  510.75   20.50
  -8 -12   6  542.95   19.40
   8 -12  -6  537.65   20.20
  -8  12   6  560.24   22.90
   6 -12  -6    8.70    7.30
  -6 -12   6   17.80    6.80
   6 -12  -6   18.70    5.30
  -6 -12   6   18.30    5.10
  -6 -12   6   24.10    5.80
  -6  12   6   15.30    7.00
   4 -12  -6    8.40    6.70
   4 -12  -6   11.70    5.00
  -4 -12   6    9.00    6.50
  -4 -12   6    3.70    4.40
  -4 -12   6    5.70    4.50
  -4  12   6    3.60    5.60
   2 -12  -6  524.95   22.40
  -2 -12   6  538.35   22.00
   2 -12  -6  549.15   17.10
  -2 -12   6  543.45   18.60
  -2 -12   6  531.45   19.00
  -2  12   6  551.64   17.40
   0 -12   6 1303.87   39.00
   0 -12  -6 1308.57   32.20
   0 -12  -6 1284.37   30.50
   0 -12  -6 1324.47   38.70
   0 -12   6 1314.27   34.80
   0 -12   6 1288.27   35.30
   0 -12  -6 1303.87   31.80
   0  12   6 1346.07   33.60
   2 -12   6  233.38   15.90
  -2 -12  -6  239.68    8.30
   2 -12   6  223.98   13.10
   2 -12   6  244.68   13.00
  -2 -12  -6  248.58   15.20
  -2 -12  -6  231.88    8.80
  -2 -12  -6  245.08    9.50
  -2  12  -6  245.48   10.30
  -4 -12  -6  154.48   12.90
   4 -12   6  156.78   14.70
   4 -12   6  140.39   11.60
   4 -12   6  138.09   11.10
  -4  12  -6  135.29   10.60
   6 -12   6  895.11   33.30
   6 -12   6  920.71   29.10
  -6 -12  -6  899.91   29.60
   6 -12   6  928.01   29.90
  -6  12  -6  933.01   27.00
   8 -12   6  649.74   25.70
   8 -12   6  647.34   24.50
  -8 -12  -6  622.84   23.80
   8 -12   6  616.14   28.60
  -8  12  -6  649.34   22.90
  10 -12   6   78.19   15.40
  10 -12   6   87.89   12.30
  10 -12   6   67.29   11.10
 -10  12  -6   83.99   11.20
   9 -13  -6    4.60    7.30
  -9 -13   6    1.70    5.20
   9 -13  -6    8.20    7.30
  -9 -13   6    1.60    5.80
   9 -13  -6    4.40    9.90
  -9  13   6  -10.80    9.20
   7 -13  -6  526.25   25.80
  -7 -13   6  518.85   21.70
  -7 -13   6  498.25   19.20
   7 -13  -6  519.95   20.40
  -7 -13   6  521.85   18.00
   7 -13  -6  531.25   20.40
  -7  13   6  496.05   22.10
   5 -13  -6  132.09   15.90
  -5 -13   6  160.28   14.50
  -5 -13   6  137.29   11.10
  -5 -13   6  128.79   10.30
   5 -13  -6  116.09   10.60
   5 -13  -6  140.39   11.10
  -5  13   6  149.79   13.20
   3 -13  -6  151.38   15.40
   3 -13  -6  167.48   10.00
  -3 -13   6  150.38   11.30
  -3 -13   6  154.28   11.40
  -3 -13   6  161.88   15.00
   3 -13  -6  124.89    9.70
  -3  13   6  134.49   11.30
  -1 -13   6   46.50    9.30
   1 -13  -6   46.20    5.20
  -1 -13   6   45.50    6.90
   1 -13  -6   60.19    9.60
  -1 -13   6   50.29    7.20
   1 -13  -6   39.20    5.20
   1 -13  -6   64.09    7.40
  -1 -13  -6  163.48    9.40
  -1 -13  -6  174.28    8.90
   1 -13   6  196.78   12.70
  -1 -13  -6  179.68    8.00
  -1 -13  -6  198.98   15.40
   1 -13   6  169.88   12.10
   1 -13   6  202.98   16.20
   3 -13   6  305.37   15.80
   3 -13   6  319.27   16.50
   3 -13   6  330.57   20.00
  -3 -13  -6  286.57   18.00
  -5 -13  -6  298.47   18.50
   5 -13   6  333.07   17.80
   5 -13   6  342.07   17.30
   5 -13   6  334.47   21.50
  -7 -13  -6   75.29   10.80
   7 -13   6   65.89   13.60
   7 -13   6   67.39   10.50
   7 -13   6   70.99    9.70
  -7  13  -6   74.79   12.90
   9 -13   6  303.47   21.30
   9 -13   6  323.37   27.20
   9 -13   6  346.47   21.00
  -9  13  -6  276.47   20.40
   6 -14  -6   65.99   13.10
  -6 -14   6   85.59   10.40
   6 -14  -6   75.89    8.90
  -6 -14   6   66.49    8.50
   6 -14  -6   70.59    9.50
  -6 -14   6   71.09   11.50
   6 -14  -6   77.69    9.40
  -4 -14   6   60.69    8.30
   4 -14  -6   62.69   12.00
   4 -14  -6   58.59    7.60
   4 -14  -6   52.09    7.60
  -4 -14   6   63.59    8.10
  -4 -14   6   60.79   10.80
   4 -14  -6   74.89    8.80
  -2 -14   6  140.59   16.80
   2 -14  -6  114.09    9.20
  -2 -14   6  128.99   12.10
  -2 -14   6  128.09   11.90
   2 -14  -6  113.59    9.50
   2 -14  -6  115.59   16.30
   0 -14   6  346.77   16.80
   0 -14  -6  326.97   12.40
   0 -14   6  337.17   21.00
   0 -14  -6  329.67   20.40
   0 -14   6  364.86   16.90
   2 -14   6    8.20    8.80
   2 -14   6   10.10    6.70
   2 -14   6   12.60    6.60
  -2 -14  -6   13.90    8.60
   4 -14   6   82.09   10.40
   4 -14   6   55.19   11.70
   4 -14   6   63.29    9.20
  -4 -14  -6   70.29   10.70
   6 -14   6    2.90    7.90
   6 -14   6    9.70   10.90
   6 -14   6    2.70    7.80
  -6 -14  -6   12.40    9.40
  -3 -15   6   32.70    7.50
   3 -15  -6   11.70   10.10
   3 -15  -6   19.70    6.40
   3 -15  -6   49.10    8.70
  -3 -15   6   43.30   11.70
   3 -15  -6   10.10    6.40
  -3 -15   6   31.10    7.70
  -1 -15   6  165.98   14.10
   1 -15  -6  157.28   10.30
   1 -15  -6  141.19    9.70
  -1 -15   6  156.28   13.90
   1 -15  -6  198.48   19.80
  -1 -15   6  142.79   19.50
   1 -15   6   -9.30    7.10
   1 -15   6    6.60   10.40
  -1 -15  -6   -3.60    9.40
   1 -15   6   -7.80    6.50
  -3 -15  -6   15.90   10.80
   3 -15   6   22.50   11.50
 -18   0   7   -0.80    8.80
  18   0  -7   11.20   10.30
 -18   0   7   -0.90   10.80
 -18   0   7   -8.60    9.40
 -16   0   7   -5.10    7.20
 -16   0   7   13.10    7.70
 -16   0   7    6.30    8.30
  16   0  -7  -13.70    7.00
 -14   0   7    3.50    6.00
  14   0  -7   -2.40    5.10
 -14   0   7   -0.70    5.40
  14   0  -7    0.60    6.10
 -14   0   7   -2.40    5.80
 -14   0   7   -0.40    4.10
  12   0  -7    1.30    5.40
  12   0  -7    0.20    3.10
  12   0  -7    5.20    4.00
 -12   0   7    1.90    5.10
 -12   0   7   -3.70    4.70
 -12   0   7    2.70    4.60
  10   0  -7    3.50    2.90
 -10   0   7   -0.90    3.40
 -10   0   7    1.80    3.70
 -10   0   7    2.40    3.90
  10   0  -7    5.90    4.50
   8   0  -7   -4.30    3.70
   8   0  -7   -3.40    3.40
  -8   0   7   -1.90    2.90
   8   0  -7    3.30    2.60
  -8   0   7   -2.90    3.00
   6   0  -7   -2.00    1.90
  -6   0   7    0.20    2.70
   6   0  -7   -3.90    2.20
  -6   0   7   -2.30    2.60
  -6   0   7    4.00    2.80
   6   0  -7   -1.40    2.20
   6   0  -7    2.10    3.60
   4   0  -7    0.40    2.50
   4   0  -7    2.00    2.90
  -4   0   7   -0.50    2.30
   4   0  -7   -1.70    1.90
  -4   0   7    6.90    2.40
   4   0  -7    0.90    2.30
  -4   0   7   -1.00    2.20
   2   0  -7    1.90    3.00
  -2   0   7    3.20    2.10
   2   0  -7    3.70    2.10
   2   0  -7   -0.60    1.90
  -2   0   7    3.70    2.30
  -2   0   7    5.90    2.50
   2   0  -7   -1.00    1.50
   0   0  -7   -3.10    2.10
   0   0   7    1.50    1.80
   0   0  -7    2.90    3.10
   0   0   7    2.50    1.90
   0   0  -7    2.70    1.80
   0   0   7   -0.10    1.90
   0   0  -7    2.30    2.10
  -2   0  -7    5.30    2.20
  -2   0  -7    4.20    3.20
   2   0   7    1.30    1.80
   2   0   7   -1.60    1.70
  -2   0  -7    0.50    1.70
  -2   0  -7    2.90    2.10
   2   0   7    2.40    2.00
  -4   0  -7   -2.50    2.10
  -4   0  -7    1.60    3.80
  -4   0  -7    0.80    2.10
   4   0   7    2.00    2.30
   4   0   7    3.90    2.20
  -4   0  -7    0.00    1.70
   6   0   7    1.90    2.50
   6   0   7    0.30    3.10
  -6   0  -7   -0.80    2.20
  -6   0  -7    4.60    2.20
  -6   0  -7    4.70    4.50
  -6   0  -7    2.10    2.50
   6   0   7   -0.30    2.40
  -6   0  -7    7.80    3.60
   8   0   7    3.50    3.10
  -8   0  -7    0.10    2.70
  -8   0  -7   10.10    5.90
  -8   0  -7    1.40    2.60
  -8   0  -7   -3.00    2.90
   8   0   7   -0.30    2.60
   8   0   7   11.50    2.90
 -10   0  -7    5.50    3.70
 -10   0  -7   -3.00    2.90
  10   0   7    2.30    3.60
  10   0   7   -1.50    2.30
  10   0   7   -1.70    3.60
  12   0   7    5.00    5.50
  12   0   7    2.20    4.90
 -12   0  -7    4.20    4.70
  14   0   7    5.40    9.00
 -17  -1   7  357.76   20.30
 -17  -1   7  355.76   20.00
 -17  -1   7  340.87   22.10
  17  -1  -7  349.07   21.50
 -17   1   7  388.16   24.10
  17   1  -7  342.17   21.40
 -17   1   7  313.17   20.00
 -17   1   7  348.17   20.40
 -15  -1   7    7.20    4.70
 -15  -1   7    5.90    6.50
 -15  -1   7   -5.40    6.10
 -15  -1   7    4.60    6.50
  15  -1  -7    5.20    7.20
 -15   1   7    1.50    4.90
  15   1  -7    7.10    6.90
 -15   1   7    9.90    6.60
 -15   1   7   11.30    7.40
 -15   1   7    0.50    7.40
 -13  -1   7   11.90    7.20
 -13  -1   7   18.10    5.40
  13  -1  -7   16.50    4.50
  13  -1  -7   13.00    5.20
 -13   1   7   13.80    6.10
  13   1  -7   21.60    6.30
 -13   1   7   21.60    4.90
 -13   1   7   12.00    5.80
  13   1  -7   15.40    4.60
 -13   1   7   15.10    6.10
 -11  -1   7    8.10    4.60
  11  -1  -7   13.90    3.80
 -11  -1   7   13.10    4.40
  11  -1  -7    9.10    3.90
 -11  -1   7    7.20    4.30
  11   1  -7   13.60    4.80
 -11   1   7   12.80    3.70
 -11   1   7   10.20    4.60
 -11   1   7   12.30    4.30
 -11   1   7    8.70    4.50
  11   1  -7   12.20    3.70
  -9  -1   7    2.90    3.30
   9  -1  -7    8.40    3.30
  -9  -1   7    6.00    3.70
   9  -1  -7    9.40    3.90
  -9   1   7    4.80    3.40
  -9   1   7    2.50    3.30
   9   1  -7    7.40    4.10
   9   1  -7    3.60    2.90
  -9   1   7    3.40    3.40
  -7  -1   7  229.08   10.70
   7  -1  -7  225.98    9.20
  -7  -1   7  212.28    9.90
   7  -1  -7  218.38   10.20
   7  -1  -7  226.58   10.30
  -7   1   7  233.98   11.00
   7   1  -7  194.58   10.10
   7   1  -7  219.68   10.40
   7   1  -7  232.58   10.50
   7   1  -7  226.08    9.10
  -7   1   7  232.88   10.40
   5  -1  -7    5.60    2.80
   5  -1  -7    1.60    2.60
  -5  -1   7    7.50    3.00
  -5  -1   7    2.50    2.60
   5  -1  -7    6.60    2.30
  -5  -1   7   11.10    2.70
  -5   1   7    6.60    2.70
  -5   1   7    3.60    2.60
  -5   1   7    6.80    2.60
   5   1  -7    3.70    3.10
   5   1  -7   12.70    2.80
   5   1  -7    5.30    2.90
   5   1  -7    4.70    2.80
  -3  -1   7  150.28    7.10
  -3  -1   7  153.88    8.00
   3  -1  -7  168.98    7.90
   3  -1  -7  153.78    8.80
   3  -1  -7  175.18    7.80
  -3  -1   7  171.28    7.90
  -3   1   7  162.08    7.10
   3   1  -7  152.18    7.00
  -3   1   7  162.08    8.00
   3   1  -7  155.38    7.70
   3   1  -7  151.48    7.60
   3   1  -7  175.88    9.00
  -3   1   7  165.88    7.70
   1  -1  -7  147.29    6.60
   1  -1  -7  134.89    6.80
   1  -1  -7  147.69    8.60
  -1  -1   7  148.39    7.50
   1  -1  -7  154.78    7.10
  -1  -1   7  155.58    7.30
  -1  -1   7  139.69    6.70
  -1   1   7  146.29    6.50
   1   1  -7  148.49    7.30
   1   1  -7  138.29    6.60
   1   1  -7  151.88    7.50
   1   1  -7  137.49    8.40
  -1   1   7  144.99    7.10
  -1   1   7  149.69    7.10
  -1  -1  -7  845.92   24.80
  -1  -1  -7  847.32   21.70
  -1  -1  -7  876.51   22.30
   1  -1   7  855.31   22.50
   1  -1   7  850.81   21.60
  -1  -1  -7  868.81   22.70
   1   1   7  855.61   21.10
   1   1   7  884.71   22.30
  -1   1  -7  894.81   22.70
  -1   1  -7  851.71   22.80
  -1   1  -7  830.92   21.80
   1   1   7  876.31   22.60
  -1   1  -7  872.21   24.70
  -3  -1  -7    0.70    1.70
  -3  -1  -7    2.50    2.00
   3  -1   7    4.20    2.10
   3  -1   7   -1.20    2.70
  -3  -1  -7    7.60    2.30
   3  -1   7    2.80    2.30
  -3  -1  -7    2.90    3.10
   3   1   7    1.00    1.80
  -3   1  -7    3.20    2.20
  -3   1  -7    2.70    3.60
  -3   1  -7    4.10    2.20
   3   1   7    5.10    2.40
  -3   1  -7    2.30    1.90
   5  -1   7   19.60    4.10
  -5  -1  -7   22.60    5.00
   5  -1   7   23.80    3.50
   5  -1   7   24.10    4.90
  -5  -1  -7   23.00    3.50
  -5  -1  -7   30.00    4.00
  -5  -1  -7   21.50    3.10
   5  -1   7   22.70    3.70
  -5   1  -7   17.40    3.30
   5   1   7   28.00    4.10
  -5   1  -7   23.80    3.80
  -5   1  -7   18.20    3.00
  -5   1  -7   29.60    5.60
   5   1   7   28.00    3.90
   5   1   7   19.30    3.40
   5   1   7   26.50    4.40
  -7  -1  -7  130.89    7.20
   7  -1   7  128.99    7.70
  -7  -1  -7  138.49    6.70
   7  -1   7  117.29    9.10
  -7  -1  -7  129.69    9.40
  -7  -1  -7  126.39   10.10
  -7  -1  -7  135.79    7.30
   7  -1   7  129.59    7.50
   7   1   7  136.69    7.30
  -7   1  -7  135.19    7.90
   7   1   7  134.59    8.40
   7   1   7  131.99    7.50
  -7   1  -7  126.99    7.70
  -7   1  -7  140.99    8.40
  -7   1  -7  129.09    6.90
  -7   1  -7  145.19   11.30
   7   1   7  127.29    6.60
   9  -1   7  132.99    6.50
   9  -1   7  157.88    9.20
  -9  -1  -7  138.19    7.50
   9  -1   7  135.89    8.70
  -9  -1  -7  145.59    8.10
   9  -1   7  146.59   10.70
  -9  -1  -7  141.99    8.10
   9   1   7  136.39    6.70
  -9   1  -7  138.89    8.60
  -9   1  -7  139.79    7.80
  -9   1  -7  140.89    8.60
   9   1   7  127.49    8.10
   9   1   7  128.99    7.90
  11  -1   7   18.60    5.50
  11  -1   7   37.40    7.00
 -11  -1  -7   30.60    4.70
 -11  -1  -7   28.10    4.40
  11  -1   7   20.80    5.00
  11   1   7   26.80    3.50
 -11   1  -7   19.80    4.40
  11   1   7   23.20    5.20
 -11   1  -7   38.50    5.80
  13  -1   7   49.30    8.00
  13   1   7   48.00    7.20
 -13   1  -7   65.49    8.10
 -15   1  -7    3.10    5.80
 -17   1  -7  171.38   14.90
  18  -2  -7  405.06   25.70
 -18  -2   7  477.05   31.90
 -18  -2   7  482.65   24.20
  18   2  -7  539.35   34.70
 -18   2   7  433.56   25.30
 -18   2   7  486.55   25.30
 -16  -2   7   10.10    7.30
  16  -2  -7   -1.60    7.50
 -16  -2   7   -1.10    7.60
 -16  -2   7    1.10    6.60
 -16   2   7    7.10    8.90
 -16   2   7   -2.40    7.80
 -16   2   7   -3.90    7.90
  16   2  -7    1.40    7.80
 -14  -2   7   11.40    5.60
  14  -2  -7   21.00    5.70
 -14  -2   7    9.10    5.80
 -14  -2   7   11.30    6.40
  14  -2  -7   15.40    5.30
  14  -2  -7   10.40    6.40
 -14   2   7    7.50    4.80
  14   2  -7   21.80    7.40
 -14   2   7   15.70    7.00
 -14   2   7   16.00    6.50
 -12  -2   7  297.57   14.10
 -12  -2   7  283.97   13.40
  12  -2  -7  303.67   12.80
  12  -2  -7  305.87   12.30
 -12  -2   7  295.57   14.80
 -12   2   7  287.57   15.50
 -12   2   7  289.87   12.20
 -12   2   7  305.27   14.50
  12   2  -7  290.77   10.80
 -12   2   7  288.87   15.40
  12   2  -7  278.67   11.60
  12   2  -7  282.87   21.50
 -10  -2   7  895.81   26.00
  10  -2  -7  917.51   24.50
  10  -2  -7  896.21   24.80
 -10  -2   7  888.01   26.90
  10   2  -7  937.31   24.20
  10   2  -7  904.11   23.80
 -10   2   7  883.31   26.20
 -10   2   7  888.61   27.40
 -10   2   7  914.91   24.80
 -10   2   7  928.01   27.30
  -8  -2   7    7.80    3.30
   8  -2  -7   -3.30    3.80
   8  -2  -7    4.70    2.80
  -8  -2   7    7.70    3.30
   8  -2  -7    7.60    2.70
   8   2  -7    5.40    3.90
   8   2  -7    2.50    2.60
  -8   2   7    7.30    3.50
  -8   2   7    3.40    2.70
  -8   2   7    4.90    3.40
   6  -2  -7    5.50    2.50
  -6  -2   7    0.40    2.60
  -6  -2   7    3.70    3.00
   6  -2  -7    4.80    3.00
   6  -2  -7   -1.30    2.10
  -6  -2   7   -3.20    2.60
  -6   2   7    3.80    2.90
   6   2  -7   -1.20    3.20
   6   2  -7    4.70    2.60
  -6   2   7   -2.10    2.40
   6   2  -7   -1.30    1.90
  -6   2   7   -0.90    2.80
   6   2  -7   -0.60    2.90
   4  -2  -7  217.48    9.00
  -4  -2   7  211.48    9.60
   4  -2  -7  207.68    8.40
  -4  -2   7  210.38    8.70
  -4  -2   7  200.88    9.20
   4  -2  -7  218.08    9.30
   4   2  -7  216.58    9.30
   4   2  -7  207.18   10.00
   4   2  -7  215.88    8.50
  -4   2   7  208.98    9.80
  -4   2   7  223.18    8.50
  -4   2   7  219.38    9.20
   4   2  -7  224.88    9.50
  -2  -2   7 2728.33   62.69
   2  -2  -7 2865.41   61.99
  -2  -2   7 2851.51   61.59
   2  -2  -7 2760.62   62.29
   2  -2  -7 2764.92   61.29
  -2  -2   7 2796.12   62.29
   2   2  -7 2846.02   63.99
  -2   2   7 2854.21   60.79
   2   2  -7 2648.44   61.29
   2   2  -7 2871.61   62.39
  -2   2   7 2784.12   62.39
   2   2  -7 2791.02   62.59
  -2   2   7 2641.44   61.59
   0  -2   7   30.90    4.10
   0  -2  -7   41.10    4.00
   0  -2   7   42.60    4.20
   0  -2  -7   33.10    3.70
   0  -2  -7   41.00    5.80
   0  -2  -7   38.70    3.90
   0  -2   7   36.60    4.30
   0  -2   7   28.70    4.20
   0   2   7   36.40    4.20
   0   2   7   32.20    3.50
   0   2  -7   34.20    3.90
   0   2   7   35.80    4.30
   0   2   7   36.60    4.10
   0   2  -7   32.50    4.30
   0   2  -7   48.80    6.00
   2  -2   7  119.99    6.50
   2  -2   7  111.19    7.80
   2  -2   7  106.29    6.60
   2  -2   7  117.79    6.20
  -2  -2  -7  115.29    5.70
  -2  -2  -7  122.59    8.40
  -2  -2  -7  119.09    6.20
   2   2   7  117.19    6.10
  -2   2  -7  115.19    6.60
  -2   2  -7  121.89    6.70
  -2   2  -7  119.09    6.10
  -2   2  -7  131.49    8.30
   2   2   7  110.29    5.90
   2   2   7  112.19    6.50
   4  -2   7  330.47   13.50
  -4  -2  -7  325.97   13.70
  -4  -2  -7  332.77   10.80
  -4  -2  -7  324.27   10.30
   4  -2   7  334.77   12.40
  -4  -2  -7  326.87   11.10
   4  -2   7  333.07   11.70
   4  -2   7  329.17   12.00
   4   2   7  307.47   11.20
  -4   2  -7  323.77   11.50
  -4   2  -7  314.57   10.90
  -4   2  -7  313.87   13.40
  -4   2  -7  343.57   12.10
   4   2   7  335.97   10.80
  -6  -2  -7 1188.48   28.50
   6  -2   7 1190.88   32.80
  -6  -2  -7 1200.98   31.60
  -6  -2  -7 1246.08   29.30
   6  -2   7 1186.08   30.20
  -6  -2  -7 1152.68   32.50
   6  -2   7 1195.28   30.60
  -6  -2  -7 1156.98   29.40
  -6   2  -7 1233.48   29.60
   6   2   7 1169.68   29.10
   6   2   7 1219.88   29.80
  -6   2  -7 1134.89   32.70
  -6   2  -7 1186.58   30.60
  -6   2  -7 1207.38   30.30
  -6   2  -7 1207.08   29.60
   8  -2   7   75.39    7.40
   8  -2   7   77.59    8.30
  -8  -2  -7   61.79    5.30
  -8  -2  -7   58.89    7.30
  -8  -2  -7   68.79    5.70
   8  -2   7   75.49    7.00
  -8   2  -7   55.59    6.90
   8   2   7   72.59    6.90
  -8   2  -7   62.69    6.80
  -8   2  -7   70.39    7.50
  -8   2  -7   70.99    6.00
   8   2   7   67.89    5.20
   8   2   7   59.69    5.90
   8   2   7   72.19    7.20
  10  -2   7  186.28   11.10
 -10  -2  -7  186.68    8.80
  10  -2   7  167.18    7.20
  10  -2   7  182.68   10.70
  10  -2   7  185.48   12.70
 -10  -2  -7  174.68    9.30
  10   2   7  183.98    9.60
  10   2   7  179.48    7.60
 -10   2  -7  183.98    9.50
 -10   2  -7  180.68   10.80
  12  -2   7   79.39   10.60
  12  -2   7   62.49    7.60
  12  -2   7   57.59    9.00
 -12   2  -7   73.29    8.10
  12   2   7   61.09    7.30
  14  -2   7  128.49   13.90
  14  -2   7  106.69   15.20
 -14   2  -7  106.89   10.60
 -16   2  -7  585.04   22.30
 -17  -3   7   61.29   11.00
 -17  -3   7   39.60    9.50
 -17  -3   7   46.60    9.70
  17  -3  -7   48.90   10.80
  17   3  -7   26.40   11.30
 -17   3   7   27.70   11.20
 -17   3   7   31.90   12.90
 -17   3   7   54.69   11.30
  15  -3  -7  443.36   20.40
 -15  -3   7  484.75   21.50
 -15  -3   7  468.15   19.40
  15  -3  -7  449.06   21.20
 -15  -3   7  480.45   20.60
 -15   3   7  494.05   16.90
  15   3  -7  483.05   22.50
 -15   3   7  478.85   22.00
 -15   3   7  473.65   21.80
 -15   3   7  455.05   23.30
 -13  -3   7 1089.89   33.00
 -13  -3   7 1145.89   32.70
 -13  -3   7 1176.68   34.10
  13  -3  -7 1171.98   31.00
  13  -3  -7 1193.08   31.90
 -13   3   7 1152.08   30.50
 -13   3   7 1159.08   34.70
 -13   3   7 1173.78   34.10
 -13   3   7 1184.78   35.70
  13   3  -7 1112.49   34.20
  11  -3  -7  160.48    9.50
 -11  -3   7  156.48    9.90
  11  -3  -7  155.38    9.30
 -11  -3   7  164.88   10.90
 -11   3   7  165.58   11.00
  11   3  -7  147.39    8.10
 -11   3   7  158.08   12.10
 -11   3   7  159.18    9.10
  11   3  -7  148.19   10.60
 -11   3   7  175.58   11.20
   9  -3  -7  487.05   17.60
  -9  -3   7  488.45   17.00
   9  -3  -7  510.45   16.30
  -9  -3   7  501.85   17.80
  -9   3   7  497.15   16.50
   9   3  -7  510.85   15.10
   9   3  -7  514.95   15.60
  -9   3   7  511.55   17.70
  -9   3   7  537.75   18.70
  -9   3   7  497.05   18.00
  -7  -3   7 2211.98   51.69
   7  -3  -7 2142.49   50.49
   7  -3  -7 2200.58   51.39
   7  -3  -7 2124.89   49.80
  -7  -3   7 2112.69   50.59
  -7   3   7 2111.69   50.89
  -7   3   7 2154.48   51.89
  -7   3   7 2169.88   50.49
   7   3  -7 2149.08   48.70
   7   3  -7 2222.58   50.09
  -5  -3   7  665.43   20.00
   5  -3  -7  688.23   19.40
  -5  -3   7  643.64   18.70
  -5  -3   7  672.83   19.50
   5  -3  -7  642.14   18.60
   5  -3  -7  671.33   19.70
  -5   3   7  666.63   19.50
   5   3  -7  692.73   18.30
  -5   3   7  680.13   18.40
  -5   3   7  671.53   19.40
  -5   3   7  695.23   20.30
   5   3  -7  662.13   19.60
   5   3  -7  680.73   19.90
   3  -3  -7   42.10    4.50
  -3  -3   7   42.90    4.90
   3  -3  -7   44.40    4.30
  -3  -3   7   40.50    4.70
  -3  -3   7   46.50    5.00
   3  -3  -7   40.30    4.40
  -3  -3   7   41.50    5.30
  -3   3   7   49.40    4.90
   3   3  -7   45.10    5.90
   3   3  -7   41.40    5.20
   3   3  -7   41.60    4.90
   3   3  -7   37.80    4.20
  -3   3   7   49.70    4.80
  -3   3   7   43.90    4.40
  -3   3   7   48.80    5.00
   1  -3  -7  266.17    9.40
  -1  -3   7  269.57   11.30
  -1  -3   7  274.67   10.20
   1  -3  -7  279.97   10.10
  -1  -3   7  275.17   10.60
  -1  -3   7  277.77   10.00
   1  -3  -7  275.67    9.90
  -1   3   7  237.78   10.80
  -1   3   7  267.87   10.50
  -1   3   7  277.47   10.10
  -1   3   7  292.67    9.00
   1   3  -7  272.07   11.60
   1   3  -7  282.07   10.50
   1   3  -7  273.37    9.90
   1   3  -7  255.17   10.10
  -1  -3  -7  479.75   14.40
   1  -3   7  480.35   15.10
   1  -3   7  489.25   16.60
   1  -3   7  483.85   14.30
  -1  -3  -7  467.95   13.60
  -1  -3  -7  502.25   14.30
   1  -3   7  485.85   14.90
  -1   3  -7  509.55   15.40
   1   3   7  496.95   12.60
  -1   3  -7  469.55   16.50
   1   3   7  426.86   13.90
  -1   3  -7  485.85   14.90
   1   3   7  499.55   14.20
  -1   3  -7  468.25   14.30
   1   3   7  477.45   15.10
  -3  -3  -7 2419.16   53.09
  -3  -3  -7 2436.36   57.09
  -3  -3  -7 2387.66   53.59
   3  -3   7 2377.66   54.79
  -3  -3  -7 2423.06   52.59
   3  -3   7 2293.47   56.59
   3  -3   7 2332.47   54.29
   3   3   7 2425.76   53.09
   3   3   7 2337.97   54.19
  -3   3  -7 2363.86   53.69
  -3   3  -7 2405.06   54.79
  -3   3  -7 2453.35   56.99
  -3   3  -7 2411.16   54.49
  -5  -3  -7  681.03   22.30
  -5  -3  -7  692.53   18.80
  -5  -3  -7  713.23   18.50
  -5  -3  -7  690.03   17.90
   5  -3   7  683.43   22.20
   5  -3   7  687.33   20.20
   5  -3   7  690.13   19.90
  -5   3  -7  697.13   20.30
  -5   3  -7  694.93   25.20
   5   3   7  698.73   19.40
   5   3   7  693.73   18.50
  -5   3  -7  665.93   19.10
  -5   3  -7  700.93   20.10
  -5   3  -7  702.93   18.80
   5   3   7  720.83   20.00
   5   3   7  682.03   18.80
  -7  -3  -7  606.14   16.60
  -7  -3  -7  576.24   16.80
  -7  -3  -7  587.04   16.10
  -7  -3  -7  548.85   20.10
   7  -3   7  581.44   18.30
   7  -3   7  582.54   20.70
   7  -3   7  589.34   18.70
   7   3   7  583.14   17.20
  -7   3  -7  608.54   18.80
  -7   3  -7  589.84   17.60
   7   3   7  579.84   16.60
  -7   3  -7  570.44   18.50
  -7   3  -7  592.54   17.10
   7   3   7  599.14   16.60
   7   3   7  588.34   16.90
   9  -3   7 1906.11   46.00
   9  -3   7 1816.12   48.10
  -9  -3  -7 1841.12   43.10
  -9  -3  -7 1863.91   42.70
   9  -3   7 1870.91   45.50
  -9  -3  -7 1785.72   43.50
  -9   3  -7 1858.11   44.00
  -9   3  -7 1804.92   45.50
   9   3   7 1853.81   43.10
   9   3   7 1906.51   43.20
   9   3   7 1838.42   43.90
   9   3   7 1866.01   42.50
  -9   3  -7 1872.81   44.50
  -9   3  -7 1885.71   46.20
  11  -3   7  487.45   20.70
  11  -3   7  534.35   19.10
  11  -3   7  522.05   19.40
  11   3   7  520.55   16.70
 -11   3  -7  544.35   17.90
  13  -3   7   15.40    6.80
 -13   3  -7    6.70    5.20
  15  -3   7   99.59   11.80
  15  -3   7  108.69   14.20
 -15   3  -7  118.19   12.50
 -16  -4   7  511.85   22.30
 -16  -4   7  514.05   23.40
 -16  -4   7  497.25   21.40
  16  -4  -7  510.75   24.00
 -16   4   7  489.85   26.80
 -16   4   7  531.55   24.60
  16   4  -7  523.75   25.00
 -16   4   7  524.45   25.10
 -14  -4   7   53.99    8.10
  14  -4  -7   45.30    7.30
  14  -4  -7   34.60    7.10
 -14  -4   7   35.10    7.30
 -14  -4   7   25.90    6.60
 -14   4   7   41.10    8.90
  14   4  -7   42.40    8.90
 -14   4   7   43.00    8.70
 -14   4   7   43.00    6.50
 -14   4   7   44.00    9.20
  12  -4  -7  826.42   24.60
 -12  -4   7  849.72   25.20
 -12  -4   7  822.62   26.30
 -12  -4   7  820.72   25.60
  12  -4  -7  831.92   24.90
 -12   4   7  793.82   23.60
 -12   4   7  825.22   27.10
  12   4  -7  780.92   26.20
 -12   4   7  812.12   27.70
 -12   4   7  840.42   26.70
  12   4  -7  799.22   21.40
 -10  -4   7 1427.16   36.80
  10  -4  -7 1423.06   36.10
 -10  -4   7 1388.56   37.70
  10  -4  -7 1388.86   38.00
  10  -4  -7 1433.46   36.60
  10   4  -7 1458.45   33.70
 -10   4   7 1406.26   39.00
  10   4  -7 1454.55   33.30
  10   4  -7 1384.56   37.40
 -10   4   7 1480.25   38.70
 -10   4   7 1437.36   37.90
 -10   4   7 1410.36   36.00
  -8  -4   7  771.82   22.80
   8  -4  -7  799.12   22.50
   8  -4  -7  783.32   23.60
  -8  -4   7  813.32   23.90
   8  -4  -7  759.42   23.00
  -8   4   7  811.72   24.50
   8   4  -7  821.02   23.40
   8   4  -7  788.82   20.70
   8   4  -7  837.52   21.80
  -8   4   7  766.02   22.60
  -8   4   7  805.72   24.30
  -8   4   7  825.52   23.80
   6  -4  -7  487.85   16.20
  -6  -4   7  496.05   16.60
  -6  -4   7  482.35   15.90
   6  -4  -7  493.35   15.30
   6  -4  -7  506.35   15.80
  -6   4   7  491.25   16.90
  -6   4   7  477.65   14.90
  -6   4   7  485.25   16.00
  -6   4   7  495.05   16.20
   6   4  -7  496.75   14.30
  -6   4   7  476.95   16.40
   4  -4  -7 1742.43   42.00
   4  -4  -7 1813.72   41.60
   4  -4  -7 1708.83   40.90
  -4  -4   7 1770.62   42.10
  -4  -4   7 1750.02   42.40
  -4  -4   7 1745.23   42.60
   4   4  -7 1762.82   42.30
   4   4  -7 1795.42   42.70
   4   4  -7 1746.23   41.90
   4   4  -7 1793.82   40.60
  -4   4   7 1760.92   41.80
  -4   4   7 1763.62   42.30
  -4   4   7 1743.83   42.30
  -4   4   7 1768.72   40.30
  -2  -4   7  854.31   24.30
  -2  -4   7  856.71   23.00
   2  -4  -7  842.22   21.90
   2  -4  -7  873.81   22.40
   2  -4  -7  851.91   22.70
  -2  -4   7  874.21   22.70
  -2  -4   7  850.51   23.40
   2   4  -7  860.11   23.30
   2   4  -7  834.12   24.20
  -2   4   7  883.81   22.60
  -2   4   7  845.92   22.70
   2   4  -7  837.92   22.90
   2   4  -7  837.92   22.00
  -2   4   7  835.02   23.40
  -2   4   7  886.41   21.00
   0  -4   7  255.17   10.20
   0  -4   7  255.87    9.80
   0  -4   7  236.28   11.00
   0  -4  -7  264.47    9.30
   0  -4  -7  247.28    9.30
   0  -4  -7  244.88    8.70
   0  -4   7  254.97   10.00
   0   4  -7  236.88   11.50
   0   4   7  245.98    9.10
   0   4  -7  238.88    9.90
   0   4  -7  235.78   10.00
   0   4  -7  255.97    9.50
   0   4   7  239.88   10.10
   0   4   7  248.48    7.60
   2  -4   7   59.79    5.40
  -2  -4  -7   52.29    4.40
   2  -4   7   55.29    5.30
   2  -4   7   64.89    6.60
   2  -4   7   48.90    5.20
  -2  -4  -7   53.69    4.40
  -2  -4  -7   53.59    4.20
  -2   4  -7   55.79    7.40
   2   4   7   57.79    4.50
  -2   4  -7   50.29    5.40
  -2   4  -7   60.49    5.00
  -2   4  -7   47.50    5.30
   2   4   7   49.90    5.10
   2   4   7   70.09    5.70
   4  -4   7 1815.32   44.50
  -4  -4  -7 1857.21   41.70
   4  -4   7 1832.32   46.60
  -4  -4  -7 1898.61   42.80
  -4  -4  -7 1755.42   46.20
   4  -4   7 1917.51   44.40
  -4  -4  -7 1894.51   42.20
   4   4   7 1893.91   42.40
  -4   4  -7 1833.42   43.40
   4   4   7 1860.41   42.10
   4   4   7 1860.71   43.90
  -4   4  -7 1834.22   44.70
  -4   4  -7 1925.11   44.60
  -4   4  -7 1928.11   41.70
  -6  -4  -7 1315.97   30.50
   6  -4   7 1272.77   33.20
  -6  -4  -7 1319.87   30.90
  -6  -4  -7 1280.77   31.30
  -6  -4  -7 1301.17   35.60
   6  -4   7 1331.27   36.10
   6  -4   7 1267.07   33.50
  -6   4  -7 1356.46   30.90
   6   4   7 1316.87   31.00
   6   4   7 1308.87   30.90
  -6   4  -7 1293.67   32.40
   6   4   7 1330.37   32.30
  -6   4  -7 1297.57   33.50
   6   4   7 1308.27   31.20
  -6   4  -7 1301.87   33.80
   8  -4   7  680.83   21.60
   8  -4   7  678.13   21.20
  -8  -4  -7  673.63   18.30
  -8  -4  -7  698.03   18.60
   8  -4   7  706.33   23.90
  -8  -4  -7  675.03   19.00
   8   4   7  698.23   18.70
  -8   4  -7  697.13   21.70
  -8   4  -7  704.53   19.30
   8   4   7  682.43   19.30
   8   4   7  691.53   19.20
   8   4   7  708.23   18.80
  10  -4   7   38.30    6.10
 -10  -4  -7   42.40    4.80
 -10  -4  -7   48.20    5.60
  10  -4   7   27.00    5.40
  10  -4   7   32.80    6.90
  10   4   7   35.00    4.70
  10   4   7   32.80    5.60
 -10   4  -7   34.50    7.20
 -10   4  -7   41.30    6.40
  10   4   7   36.00    5.30
 -10   4  -7   39.50    6.80
  12  -4   7 1368.96   37.50
  12  -4   7 1382.06   38.10
 -12   4  -7 1329.97   36.20
  14  -4   7  788.32   30.50
 -14   4  -7  775.22   25.60
  16  -4   7   64.29   14.60
  16  -4   7   35.70   16.80
 -16   4  -7   55.99    9.50
 -17  -5   7   30.40    9.50
 -17  -5   7   28.30    9.00
 -17  -5   7   43.60    9.90
  17  -5  -7   24.30   11.00
 -17   5   7   29.50   11.90
 -17   5   7   37.80   11.50
 -17   5   7   44.20   14.90
  17   5  -7   39.90   12.90
 -15  -5   7  967.60   30.60
 -15  -5   7  954.90   29.70
  15  -5  -7  992.00   32.50
 -15  -5   7  936.21   31.10
  15  -5  -7  923.11   29.80
 -15   5   7  965.80   35.30
 -15   5   7  941.91   32.90
 -15   5   7  985.70   27.60
  15   5  -7  918.61   33.00
 -15   5   7  918.11   32.70
 -13  -5   7  887.21   26.70
 -13  -5   7  871.61   28.10
  13  -5  -7  866.81   27.00
 -13  -5   7  899.61   27.50
  13  -5  -7  865.01   26.50
  13   5  -7  843.52   28.60
 -13   5   7  869.31   29.10
 -13   5   7  859.81   30.50
 -13   5   7  875.81   25.40
 -13   5   7  873.91   29.40
 -11  -5   7  170.78   11.20
 -11  -5   7  168.58   10.50
  11  -5  -7  172.58   11.10
  11  -5  -7  168.08   10.40
  11   5  -7  151.18   11.30
 -11   5   7  162.88   13.10
 -11   5   7  165.78   12.10
  11   5  -7  146.09    7.50
 -11   5   7  144.39   15.50
 -11   5   7  148.49    9.70
  -9  -5   7   68.39    7.30
  -9  -5   7   55.99    6.90
   9  -5  -7   55.99    6.80
   9  -5  -7   60.09    7.50
   9  -5  -7   70.29    6.60
   9   5  -7   59.19    7.60
  -9   5   7   57.59    7.10
  -9   5   7   62.49    7.80
  -9   5   7   64.89    7.10
   9   5  -7   63.89    5.40
   9   5  -7   66.59    6.50
  -9   5   7   58.39    7.90
   7  -5  -7 2706.13   62.29
   7  -5  -7 2698.73   61.69
  -7  -5   7 2699.53   62.29
   7  -5  -7 2747.93   63.19
  -7  -5   7 2649.14   62.99
   7   5  -7 2848.31   61.39
  -7   5   7 2735.33   63.79
  -7   5   7 2649.73   62.49
   7   5  -7 2747.03   61.99
  -7   5   7 2732.23   63.59
  -7   5   7 2699.23   62.79
   7   5  -7 2690.23   59.39
   5  -5  -7 2426.86   54.39
   5  -5  -7 2361.26   53.79
   5  -5  -7 2371.66   57.09
  -5  -5   7 2388.96   54.79
  -5  -5   7 2396.56   55.59
  -5  -5   7 2371.36   54.99
  -5   5   7 2416.66   55.39
   5   5  -7 2366.46   52.59
   5   5  -7 2362.16   54.79
  -5   5   7 2367.96   55.29
  -5   5   7 2290.47   55.09
  -5   5   7 2323.47   52.79
  -5   5   7 2357.66   54.69
  -3  -5   7   10.40    3.20
   3  -5  -7    7.60    2.50
   3  -5  -7   13.50    3.00
   3  -5  -7    3.10    2.30
  -3  -5   7    2.00    2.60
  -3  -5   7    4.30    3.10
  -3  -5   7    7.30    3.20
  -3   5   7    7.10    2.50
  -3   5   7    5.00    2.90
   3   5  -7    8.60    3.10
  -3   5   7    6.20    2.90
   3   5  -7    9.20    2.70
   3   5  -7   12.90    4.00
  -3   5   7    2.80    2.60
  -1  -5   7   43.70    5.40
   1  -5  -7   46.80    4.60
  -1  -5   7   44.70    5.30
   1  -5  -7   47.10    4.50
   1  -5  -7   41.70    4.20
  -1  -5   7   45.60    5.10
  -1  -5   7   47.60    6.10
   1   5  -7   50.29    7.00
  -1   5   7   40.30    5.20
   1   5  -7   40.80    5.50
  -1   5   7   39.00    4.40
   1   5  -7   47.70    5.80
   1   5  -7   47.80    4.80
  -1  -5  -7 2802.52   60.99
  -1  -5  -7 2715.43   59.99
   1  -5   7 2809.92   62.19
   1  -5   7 2711.83   61.39
   1  -5   7 2693.83   62.39
   1  -5   7 2745.13   64.29
  -1  -5  -7 2779.32   60.49
  -1   5  -7 2689.43   61.99
  -1   5  -7 2647.44   63.69
   1   5   7 2786.32   62.79
  -1   5  -7 2730.23   62.29
   1   5   7 2812.92   60.59
  -1   5  -7 2764.42   61.29
  -3  -5  -7 1614.24   37.20
   3  -5   7 1703.83   40.20
   3  -5   7 1580.14   42.00
  -3  -5  -7 1642.84   38.20
  -3  -5  -7 1641.14   37.60
   3  -5   7 1677.93   40.40
  -3   5  -7 1562.04   39.80
  -3   5  -7 1666.73   39.20
   3   5   7 1659.83   37.60
   3   5   7 1669.73   37.50
  -3   5  -7 1685.03   40.50
   3   5   7 1653.53   40.00
  -5  -5  -7  380.26   18.10
   5  -5   7  358.96   13.60
   5  -5   7  374.26   13.90
  -5  -5  -7  358.26   11.20
   5  -5   7  401.76   16.10
  -5  -5  -7  374.86   11.70
  -5  -5  -7  358.96   11.00
  -5   5  -7  368.56   14.20
   5   5   7  385.36   11.90
   5   5   7  374.46   11.40
  -5   5  -7  369.26   13.00
  -5   5  -7  374.66   10.80
   5   5   7  370.36   13.30
  -7  -5  -7  439.16   12.80
  -7  -5  -7  448.96   13.50
   7  -5   7  428.96   16.40
   7  -5   7  444.86   18.30
  -7  -5  -7  470.15   13.20
   7  -5   7  431.96   15.90
  -7   5  -7  447.16   16.70
   7   5   7  465.85   13.30
  -7   5  -7  427.46   15.10
   7   5   7  490.25   13.80
   7   5   7  457.55   15.00
  -7   5  -7  451.85   13.20
  -9  -5  -7 1394.76   32.50
   9  -5   7 1363.66   39.20
   9  -5   7 1376.46   36.60
   9  -5   7 1387.26   37.20
  -9  -5  -7 1407.36   33.30
  -9   5  -7 1361.06   37.40
   9   5   7 1394.06   33.00
  -9   5  -7 1399.76   33.10
   9   5   7 1404.86   32.30
  -9   5  -7 1290.67   36.20
  11  -5   7 1472.25   39.60
  11  -5   7 1484.75   40.30
  11  -5   7 1469.35   43.10
 -11   5  -7 1436.46   38.00
  13  -5   7  119.59   15.20
  13  -5   7   78.09   10.20
  13  -5   7  107.99   13.70
 -13   5  -7   99.59   11.10
  15  -5   7  374.06   22.70
  15  -5   7  379.06   25.00
 -15   5  -7  364.46   18.60
  16  -6  -7  303.57   20.30
 -16  -6   7  319.07   18.90
 -16  -6   7  318.17   17.00
 -16  -6   7  269.67   17.90
 -16   6   7  308.37   21.20
  16   6  -7  277.07   22.10
 -16   6   7  279.47   26.20
 -16   6   7  266.87   22.10
 -14  -6   7  407.46   17.70
  14  -6  -7  404.36   18.30
 -14  -6   7  419.76   19.30
 -14  -6   7  419.76   19.00
 -14   6   7  440.96   23.50
 -14   6   7  423.76   21.90
  14   6  -7  450.45   21.80
 -14   6   7  420.16   21.00
 -14   6   7  402.76   16.80
 -12  -6   7  639.84   21.80
 -12  -6   7  644.64   21.10
  12  -6  -7  645.54   21.80
 -12  -6   7  647.54   22.60
  12  -6  -7  628.44   22.70
 -12   6   7  637.44   24.10
  12   6  -7  632.24   23.20
 -12   6   7  618.94   25.10
 -12   6   7  614.44   25.00
 -12   6   7  629.44   20.80
  10  -6  -7  606.64   20.90
 -10  -6   7  554.94   20.80
  10  -6  -7  536.35   20.80
 -10  -6   7  574.74   20.00
  10  -6  -7  552.34   19.10
 -10   6   7  573.04   20.90
 -10   6   7  582.54   21.40
  10   6  -7  572.34   20.10
 -10   6   7  575.44   19.30
 -10   6   7  609.64   22.40
  10   6  -7  626.14   15.30
   8  -6  -7  766.22   23.50
  -8  -6   7  770.22   23.40
  -8  -6   7  768.42   22.70
   8  -6  -7  786.22   22.40
   8  -6  -7  766.32   23.20
   8  -6  -7  796.72   24.30
  -8   6   7  784.22   23.10
   8   6  -7  770.82   21.30
   8   6  -7  752.02   19.20
  -8   6   7  752.12   23.90
   8   6  -7  771.52   22.70
  -8   6   7  760.42   24.40
  -8   6   7  777.52   23.70
  -6  -6   7  147.09    8.90
  -6  -6   7  160.88    9.30
   6  -6  -7  156.18    8.80
   6  -6  -7  162.58    8.80
   6  -6  -7  156.18    8.20
  -6  -6   7  154.28    8.70
  -6   6   7  158.58    9.20
   6   6  -7  156.68    8.30
   6   6  -7  158.28    9.30
  -6   6   7  146.39    9.10
   6   6  -7  153.88    6.80
  -6   6   7  154.98    9.80
  -6   6   7  135.49    8.20
  -6   6   7  152.38    9.30
  -4  -6   7 2520.65   59.29
   4  -6  -7 2473.25   57.19
   4  -6  -7 2501.05   58.29
  -4  -6   7 2505.15   58.39
  -4  -6   7 2596.54   59.19
   4  -6  -7 2585.94   57.79
   4   6  -7 2592.44   59.09
  -4   6   7 2510.85   58.49
  -4   6   7 2598.74   55.89
  -4   6   7 2578.24   58.59
  -4   6   7 2506.45   59.29
  -4   6   7 2596.64   57.99
   4   6  -7 2504.25   56.09
   4   6  -7 2551.84   56.39
  -2  -6   7 3086.09   69.19
  -2  -6   7 2996.20   67.79
   2  -6  -7 3041.80   66.89
   2  -6  -7 2705.93   67.69
  -2  -6   7 3027.90   67.29
   2  -6  -7 3004.70   65.79
   2   6  -7 3022.80   65.79
  -2   6   7 2922.11   68.19
  -2   6   7 3079.79   63.59
  -2   6   7 3004.10   68.29
   2   6  -7 3000.30   68.79
   0  -6  -7  820.32   21.90
   0  -6   7  840.02   23.60
   0  -6   7  831.32   25.00
   0  -6   7  841.82   23.20
   0  -6  -7  822.42   21.20
   0  -6  -7  864.41   21.70
   0   6   7  843.82   23.90
   0   6  -7  814.22   26.80
   0   6  -7  832.32   24.00
   0   6   7  839.42   21.40
   0   6   7  855.31   21.80
   0   6  -7  837.62   22.30
   2  -6   7  369.46   13.70
  -2  -6  -7  387.06   12.00
   2  -6   7  375.46   13.50
   2  -6   7  381.46   15.50
  -2  -6  -7  365.26   11.20
  -2  -6  -7  380.96   11.50
  -2   6  -7  341.77   13.60
  -2   6  -7  353.66   12.60
   2   6   7  391.46   11.70
   2   6   7  375.86   11.40
   2   6   7  368.76   13.80
   4  -6   7 2309.87   58.09
  -4  -6  -7 2342.57   51.89
  -4  -6  -7 2371.26   51.99
   4  -6   7 2376.46   55.89
   4  -6   7 2366.76   55.39
  -4  -6  -7 2389.26   52.79
   4   6   7 2323.17   55.09
  -4   6  -7 2381.76   50.09
  -4   6  -7 2344.67   54.39
   4   6   7 2385.16   51.69
  -4   6  -7 2519.35   57.69
   6  -6   7  558.64   20.80
   6  -6   7  556.54   18.50
  -6  -6  -7  538.45   14.70
  -6  -6  -7  555.64   15.30
   6  -6   7  585.94   20.40
  -6  -6  -7  546.15   14.70
   6  -6   7  549.54   18.80
  -6   6  -7  567.94   17.60
   6   6   7  565.84   15.10
   6   6   7  549.85   17.60
  -6   6  -7  559.84   14.00
   6   6   7  554.04   14.80
   6   6   7  564.84   14.40
   8  -6   7  140.69   10.10
  -8  -6  -7  131.29    6.60
   8  -6   7  147.69   10.70
   8  -6   7  144.89   12.20
  -8  -6  -7  138.59    9.10
   8   6   7  134.89    6.90
   8   6   7  142.69    7.30
  -8   6  -7  141.39    9.00
   8   6   7  131.99    6.20
 -10  -6  -7  133.69    7.30
  10  -6   7  122.69   11.30
  10  -6   7  139.19   13.20
  10  -6   7  128.69   11.00
 -10   6  -7  122.69    9.90
  12  -6   7  492.85   21.50
  12  -6   7  511.95   21.40
  12  -6   7  529.45   24.10
 -12   6  -7  510.25   19.30
  14  -6   7 1371.06   44.80
  14  -6   7 1430.66   42.20
 -14   6  -7 1435.56   39.80
 -15  -7   7  409.26   19.80
  15  -7  -7  431.86   22.70
 -15  -7   7  434.06   19.40
 -15  -7   7  406.36   18.70
 -15   7   7  416.56   23.40
  15   7  -7  393.16   23.00
 -15   7   7  403.86   23.90
  13  -7  -7  531.45   20.30
 -13  -7   7  519.25   19.20
 -13  -7   7  521.35   19.70
  13  -7  -7  513.35   21.90
 -13  -7   7  509.85   20.50
 -13   7   7  529.75   25.10
  13   7  -7  504.75   22.30
 -13   7   7  511.45   23.20
 -13   7   7  479.85   18.90
 -13   7   7  518.05   23.10
 -11  -7   7   92.09    8.80
  11  -7  -7   84.59   13.20
  11  -7  -7   79.69    8.60
 -11  -7   7   88.79    9.80
 -11   7   7   89.89    9.50
 -11   7   7   99.09   11.40
 -11   7   7  101.89   11.50
 -11   7   7  106.79   13.40
   9  -7  -7  399.86   17.00
   9  -7  -7  391.96   16.60
  -9  -7   7  386.06   15.60
   9  -7  -7  386.06   15.20
  -9   7   7  385.56   16.80
  -9   7   7  388.76   15.40
  -9   7   7  370.96   17.50
  -9   7   7  391.16   17.10
   9   7  -7  394.96   15.60
   9   7  -7  366.26   14.60
   7  -7  -7  663.33   21.10
   7  -7  -7  674.13   20.60
  -7  -7   7  677.73   20.40
   7  -7  -7  667.83   22.40
   7  -7  -7  631.44   19.80
  -7  -7   7  687.63   20.60
  -7  -7   7  685.33   21.20
  -7   7   7  689.23   21.50
  -7   7   7  670.23   21.70
   7   7  -7  657.33   20.10
   7   7  -7  672.23   16.80
  -7   7   7  653.73   23.90
   7   7  -7  656.63   19.80
  -7   7   7  662.53   19.70
  -7   7   7  667.83   21.30
  -5  -7   7 1082.79   29.80
   5  -7  -7 1104.39   28.40
  -5  -7   7 1102.19   29.90
   5  -7  -7 1096.39   31.10
   5  -7  -7 1095.09   28.70
  -5  -7   7 1098.89   29.20
   5  -7  -7 1094.59   29.40
   5   7  -7 1091.39   26.10
  -5   7   7 1099.39   29.70
  -5   7   7 1122.59   29.80
   5   7  -7 1082.29   29.50
   5   7  -7 1103.39   27.60
  -5   7   7 1119.49   30.40
  -5   7   7 1100.99   29.20
  -5   7   7 1121.09   27.00
   3  -7  -7  358.06   12.70
  -3  -7   7  366.36   14.60
   3  -7  -7  355.26   12.30
   3  -7  -7  371.26   13.10
  -3  -7   7  375.76   13.50
  -3  -7   7  362.16   13.70
   3   7  -7  376.16   11.80
  -3   7   7  366.66   10.50
   3   7  -7  367.56   11.30
   3   7  -7  371.06   15.00
  -3   7   7  361.66   14.30
  -3   7   7  368.06   13.30
   1  -7  -7  747.23   20.50
  -1  -7   7  780.52   24.10
   1  -7  -7  777.92   20.40
  -1  -7   7  780.92   22.10
   1  -7  -7  753.02   21.00
  -1  -7   7  790.62   22.60
  -1   7   7  784.02   23.30
  -1   7   7  765.12   20.50
  -1   7   7  804.52   21.10
   1   7  -7  778.02   18.40
   1   7  -7  773.52   20.70
  -1   7   7  775.12   21.00
   1  -7   7 1349.47   35.00
  -1  -7  -7 1405.46   32.90
  -1  -7  -7 1371.86   32.30
   1  -7   7 1393.06   37.40
  -1  -7  -7 1340.27   32.00
   1  -7   7 1343.67   34.60
   1   7   7 1354.26   35.40
   1   7   7 1413.86   32.20
  -1   7  -7 1348.37   33.50
   1   7   7 1376.06   32.00
   3  -7   7  934.61   28.80
  -3  -7  -7  936.31   22.90
  -3  -7  -7  928.61   23.00
   3  -7   7  914.21   26.50
   3  -7   7  987.30   26.40
  -3  -7  -7  944.81   23.60
  -3   7  -7  935.71   25.20
   3   7   7  968.30   22.40
   3   7   7  933.21   22.60
   3   7   7  949.31   26.60
  -5  -7  -7   86.99    5.90
   5  -7   7   84.09    9.10
   5  -7   7   97.59    9.80
   5  -7   7   81.49    8.20
  -5  -7  -7   94.89    5.40
  -5  -7  -7   92.19    4.80
   5  -7   7   86.59    8.00
   5   7   7   89.29    5.30
   5   7   7   99.39    7.80
  -5   7  -7   81.09    6.90
   5   7   7   96.79    5.60
  -7  -7  -7  286.27    9.50
   7  -7   7  295.77   13.90
   7  -7   7  254.77   15.50
  -7  -7  -7  290.57    9.70
   7  -7   7  303.37   13.50
   7   7   7  274.17    8.90
   7   7   7  288.07    8.90
  -7   7  -7  300.47   12.50
  -9  -7  -7 1258.47   29.70
   9  -7   7 1275.27   38.30
   9  -7   7 1135.99   44.30
   9  -7   7 1331.17   36.30
  -9   7  -7 1275.37   33.90
  11  -7   7  365.06   17.50
  11  -7   7  320.87   19.60
  11  -7   7  337.67   17.70
 -11  -7  -7  328.17   12.00
 -11   7  -7  351.06   15.90
  13  -7   7   96.89   12.30
  13  -7   7   65.49   12.30
  13  -7   7   54.89   10.60
 -13   7  -7   64.19    9.10
  15  -7   7  104.29   16.30
 -15   7  -7   98.69   14.60
 -14  -8   7   63.59    9.00
 -14  -8   7   47.60   10.30
  14  -8  -7   62.99   12.10
 -14  -8   7   59.29    8.10
  14   8  -7   55.49   11.50
 -14   8   7   37.80   10.90
 -14   8   7   49.40   10.70
 -12  -8   7  534.65   19.00
  12  -8  -7  502.75   22.60
 -12  -8   7  516.65   19.40
  12  -8  -7  517.05   20.10
 -12  -8   7  541.55   20.40
 -12   8   7  548.25   23.20
 -12   8   7  535.95   20.30
 -12   8   7  505.85   26.00
  12   8  -7  483.85   21.80
 -10  -8   7  800.62   24.80
 -10  -8   7  777.42   23.50
  10  -8  -7  791.82   26.80
  10  -8  -7  783.72   24.20
 -10   8   7  706.73   25.40
 -10   8   7  776.92   26.50
  10   8  -7  776.42   25.00
 -10   8   7  777.02   26.10
 -10   8   7  765.92   27.20
  -8  -8   7   11.40    5.30
   8  -8  -7   12.10    6.60
   8  -8  -7   10.10    5.40
  -8  -8   7   24.70    5.00
   8  -8  -7   13.90    5.60
  -8  -8   7   21.50    4.90
  -8   8   7   15.30    6.10
  -8   8   7   18.00    5.60
   8   8  -7   17.60    6.20
  -8   8   7   14.60    6.00
   8   8  -7   20.80    5.30
  -8   8   7   12.20    5.20
  -6  -8   7   74.99    8.20
   6  -8  -7   67.49    8.70
   6  -8  -7   71.89    6.90
   6  -8  -7   65.59    7.30
   6  -8  -7   72.69    7.40
  -6  -8   7   71.59    7.10
  -6  -8   7   77.49    7.70
   6   8  -7   71.39    4.70
  -6   8   7   71.49    8.30
  -6   8   7   67.59    8.00
  -6   8   7   63.99    7.30
   6   8  -7   75.19    7.20
  -6   8   7   80.09    8.10
  -6   8   7   68.79    8.70
   6   8  -7   70.89    9.20
   4  -8  -7  165.08    9.00
   4  -8  -7  184.68   11.40
  -4  -8   7  188.28   10.00
   4  -8  -7  177.78    9.20
   4  -8  -7  188.38    8.90
  -4  -8   7  161.58   10.30
  -4  -8   7  185.68    9.80
   4   8  -7  181.18    8.10
  -4   8   7  188.58   10.20
  -4   8   7  185.98    9.90
  -4   8   7  177.98   10.70
   4   8  -7  195.18    7.40
  -4   8   7  191.38    7.30
  -2  -8   7  998.40   27.00
   2  -8  -7  981.20   25.50
   2  -8  -7  988.30   26.10
  -2  -8   7 1007.60   29.00
  -2  -8   7  977.20   27.30
   2  -8  -7  958.50   25.10
  -2   8   7 1012.80   26.10
  -2   8   7 1009.90   25.70
  -2   8   7  961.00   25.90
   2   8  -7  992.30   24.70
  -2   8   7 1024.30   28.60
   0  -8  -7  183.38    8.30
   0  -8  -7  172.68    7.70
   0  -8   7  197.28   10.10
   0  -8   7  152.38   10.80
   0  -8   7  172.08    9.30
   0  -8  -7  169.98    7.70
   0   8   7  177.48   10.30
   0   8   7  186.18    8.20
   0   8  -7  180.88    8.70
   0   8   7  186.18    8.20
   0   8   7  176.28    7.90
  -2  -8  -7  557.44   15.50
   2  -8   7  573.04   19.10
  -2  -8  -7  574.94   15.90
   2  -8   7  590.34   18.80
  -2  -8  -7  577.84   16.20
   2  -8   7  577.44   21.40
   2   8   7  595.14   15.80
   2   8   7  584.74   15.10
   2   8   7  599.24   15.50
   2   8   7  567.24   19.40
  -2   8  -7  571.24   17.70
  -4  -8  -7  129.29    5.70
   4  -8   7  135.59    9.60
   4  -8   7  148.79   11.60
   4  -8   7  125.49   10.40
  -4  -8  -7  133.79    6.70
   4  -8   7  154.58    9.60
  -4  -8  -7  136.49    6.60
  -4   8  -7  130.09    8.50
   4   8   7  134.59    9.60
   4   8   7  149.88    5.80
   4   8   7  146.19    5.90
   6  -8   7  611.84   20.90
   6  -8   7  583.74   20.30
  -6  -8  -7  582.94   15.60
   6  -8   7  615.64   32.20
   6  -8   7  532.55   21.30
  -6  -8  -7  610.44   15.50
  -6   8  -7  593.84   19.00
   8  -8   7  176.88   11.70
   8  -8   7  167.28   12.40
  -8  -8  -7  159.68    7.30
  -8  -8  -7  170.68    6.90
   8  -8   7  158.98   14.20
  -8   8  -7  152.18   10.40
  10  -8   7  176.28   14.00
  10  -8   7  206.58   14.10
  10  -8   7  154.78   16.20
 -10  -8  -7  158.48    8.40
 -10   8  -7  199.18   12.50
  12  -8   7  291.07   18.20
  12  -8   7  321.47   21.90
  12  -8   7  322.37   19.10
 -12   8  -7  290.37   16.20
  14  -8   7  187.98   19.70
  14  -8   7  226.98   23.30
 -14   8  -7  188.78   16.50
 -13  -9   7  573.84   21.40
 -13  -9   7  579.94   20.60
  13  -9  -7  558.54   26.30
  13  -9  -7  594.44   23.00
 -13  -9   7  563.54   22.10
 -13   9   7  613.14   26.80
  13   9  -7  574.94   25.60
 -13   9   7  576.84   26.70
 -11  -9   7  126.09   11.40
  11  -9  -7  107.39   14.30
  11  -9  -7  144.19   12.30
 -11  -9   7  118.79   10.40
 -11   9   7  107.39   13.80
  11   9  -7  139.59   13.70
 -11   9   7   89.99   12.00
 -11   9   7  131.39   15.70
  -9  -9   7  405.36   16.90
   9  -9  -7  437.76   19.90
  -9  -9   7  414.86   16.00
   9  -9  -7  435.96   16.90
  -9  -9   7  417.16   15.60
  -9   9   7  431.46   17.90
  -9   9   7  418.06   18.70
   9   9  -7  406.06   17.00
  -9   9   7  410.36   19.20
  -7  -9   7  367.86   15.40
  -7  -9   7  399.56   15.60
   7  -9  -7  360.36   17.50
  -7  -9   7  385.76   14.80
   7   9  -7  364.96   14.30
  -7   9   7  323.37   18.10
  -7   9   7  377.86   16.70
   7   9  -7  311.07   20.80
  -7   9   7  359.16   16.00
  -7   9   7  385.36   16.40
  -5  -9   7   26.50    5.50
   5  -9  -7   10.80    8.40
   5  -9  -7   21.40    5.00
  -5  -9   7   15.80    5.00
   5  -9  -7   13.20    4.10
   5  -9  -7   22.00    4.40
  -5  -9   7   23.20    4.70
   5   9  -7   22.60    2.80
  -5   9   7   16.30    5.40
  -5   9   7   12.20    5.00
   5   9  -7   18.60    4.10
  -5   9   7   18.80    5.10
  -5   9   7    6.40    4.40
  -5   9   7   17.30    3.90
  -3  -9   7   17.50    4.40
   3  -9  -7   25.30    4.90
  -3  -9   7   29.10    5.20
  -3  -9   7   18.20    5.40
   3  -9  -7   28.50    4.40
   3  -9  -7   19.50    4.20
   3  -9  -7   20.50    5.30
  -3   9   7   26.60    4.90
  -3   9   7   29.10    5.10
  -3   9   7   25.90    5.60
  -3   9   7   21.70    4.80
   3   9  -7   32.50    3.90
   3   9  -7   28.40    3.60
   1  -9  -7    6.70    4.40
   1  -9  -7    9.10    3.10
   1  -9  -7   -0.90    2.60
  -1  -9   7    6.30    3.50
   1  -9  -7    6.50    3.10
  -1  -9   7   -1.20    4.20
  -1  -9   7    6.90    3.50
  -1   9   7   -0.30    3.40
   1   9  -7    7.60    3.40
  -1   9   7    4.50    3.90
  -1   9   7   11.30    4.30
  -1   9   7    7.30    3.60
   1  -9   7   93.29    9.80
   1  -9   7   89.39    8.20
   1  -9   7   89.79    7.70
  -1  -9  -7   89.59    6.00
  -1  -9  -7   96.49    6.10
  -1  -9  -7   94.69    5.90
   1   9   7  107.69    6.50
   1   9   7   97.99    6.20
  -1   9  -7   93.89    7.40
   1   9   7   99.49    6.50
   1   9   7   93.29    9.00
  -3  -9  -7  451.35   12.10
   3  -9   7  445.36   19.30
   3  -9   7  459.05   18.20
  -3  -9  -7  455.25   13.20
   3  -9   7  452.15   17.10
  -3  -9  -7  430.46   13.20
   3  -9   7  440.56   18.00
   3   9   7  452.35   17.40
   3   9   7  451.35   12.00
   3   9   7  412.26   11.80
  -3   9  -7  448.96   15.50
   5  -9   7  547.35   22.40
  -5  -9  -7  532.45   14.20
   5  -9   7  562.34   20.10
   5  -9   7  551.44   21.00
  -5  -9  -7  541.15   14.90
   5  -9   7  547.55   19.50
  -5   9  -7  534.55   18.00
   7  -9   7   98.29   10.40
  -7  -9  -7  118.09    5.20
   7  -9   7  126.89   13.70
   7  -9   7  120.79   11.30
  -7  -9  -7  136.19    6.70
  -7   9  -7  133.29   10.00
  -9  -9  -7  699.53   20.80
   9  -9   7  694.13   25.40
   9  -9   7  682.13   24.80
   9  -9   7  680.93   28.30
  -9   9  -7  679.03   22.80
  11  -9   7  158.88   15.50
  11  -9   7  190.68   19.60
  11  -9   7  139.99   15.50
 -11   9  -7  162.18   13.60
  13  -9   7   -3.20    9.60
  13  -9   7    4.40   10.10
  13  -9   7   12.20   12.20
 -13   9  -7   27.40    9.10
  12 -10  -7  139.99   17.90
  12 -10  -7  133.09   13.70
 -12 -10   7  132.29   12.40
 -12 -10   7  134.89   11.90
  12  10  -7  129.69   16.80
 -12  10   7  126.99   17.60
 -12  10   7  111.59   14.50
  10 -10  -7   23.50    8.30
 -10 -10   7   24.80    5.80
 -10 -10   7   13.30    6.00
  10 -10  -7   15.10    6.90
 -10  10   7   40.60    9.50
 -10  10   7   21.40    9.00
  -8 -10   7    7.20    4.90
  -8 -10   7   11.20    5.80
  -8 -10   7    4.20    4.80
   8 -10  -7   -5.30    5.70
   8 -10  -7    4.40    4.70
  -8  10   7   -1.10    6.30
  -8  10   7    5.90    6.90
  -8  10   7   -7.20    5.90
   8  10  -7    6.00    5.70
  -6 -10   7   -0.90    4.00
  -6 -10   7    5.10    4.40
   6 -10  -7   -3.90    5.30
  -6 -10   7   -2.00    5.10
  -6  10   7    2.00    5.50
  -6  10   7   -0.40    5.40
  -6  10   7   -0.20    5.40
   6  10  -7   -1.20    4.60
   4 -10  -7    1.50    4.80
   4 -10  -7   -3.10    3.50
   4 -10  -7    9.50    6.00
  -4 -10   7    1.70    4.80
  -4 -10   7   -2.60    3.30
  -4 -10   7    4.60    4.10
  -4  10   7    2.60    4.40
   4  10  -7    3.80    3.50
  -4  10   7   -3.00    4.50
   2 -10  -7  198.38    9.20
  -2 -10   7  219.08   11.50
  -2 -10   7  210.58   10.90
   2 -10  -7  209.38    9.80
   2 -10  -7  221.38   13.10
  -2 -10   7  211.38   13.00
   2 -10  -7  203.68    9.50
  -2  10   7  221.28   10.30
   2  10  -7  203.68    8.20
  -2  10   7  199.18   12.60
  -2  10   7  197.68   10.30
   0 -10  -7    3.50    2.90
   0 -10  -7    4.20    5.30
   0 -10   7    5.40    5.30
   0 -10  -7   -2.80    3.10
   0 -10   7    0.90    3.70
   0 -10  -7   -4.80    2.70
   0 -10   7    3.50    4.00
   0  10   7   -3.20    3.40
   0  10   7    0.90    4.90
   0  10   7   -1.50    3.80
   0  10   7   -0.70    3.30
   0  10  -7    4.00    3.90
  -2 -10  -7   92.89    5.30
   2 -10   7   79.89    8.60
  -2 -10  -7   81.89    6.30
   2 -10   7  100.69    8.80
   2 -10   7   79.99   10.90
  -2 -10  -7   78.39    6.10
  -2  10  -7   98.19    8.10
   2  10   7   77.29    6.20
  -4 -10  -7   38.50    4.80
   4 -10   7   49.70    7.40
  -4 -10  -7   52.59    9.10
   4 -10   7   46.80    6.80
  -4 -10  -7   44.20    5.30
   4 -10   7   43.60    9.00
  -4  10  -7   46.90    6.40
   6 -10   7   21.80    5.90
   6 -10   7   14.50    7.20
  -6 -10  -7   15.50    3.80
   6 -10   7   14.80    6.10
  -6 -10  -7   14.30    6.20
   8 -10   7   -2.90    6.20
  -8 -10  -7    4.20    7.30
   8 -10   7    1.20    8.60
   8 -10   7    7.00    6.90
  -8  10  -7   15.30    6.20
  10 -10   7   19.60   10.70
  10 -10   7    6.40    8.00
  10 -10   7    5.20    7.90
 -10  10  -7    9.60    7.30
  12 -10   7   19.10   10.50
  12 -10   7   28.60   10.30
  12 -10   7   37.20   13.40
 -12  10  -7   24.60    9.10
 -11 -11   7   51.79    8.10
  11 -11  -7   52.69   11.40
  11 -11  -7   37.70    8.50
 -11 -11   7   44.70    7.30
 -11  11   7   35.80   11.40
  11  11  -7   47.40   10.60
   9 -11  -7  143.19   16.60
   9 -11  -7  154.68   12.70
  -9 -11   7  119.59   11.60
  -9 -11   7  135.59   10.80
  -9  11   7  141.39   15.70
   9  11  -7  128.49   13.10
  -7 -11   7   -3.60    4.70
  -7 -11   7    1.10    5.90
   7 -11  -7    2.70    7.70
   7 -11  -7    8.40    5.30
  -7 -11   7    7.60    5.20
   7  11  -7   -2.30    5.60
  -5 -11   7   11.80    6.00
  -5 -11   7    0.30    4.60
  -5 -11   7    4.90    4.80
   5 -11  -7    2.60    6.20
  -5  11   7   -0.50    5.60
   3 -11  -7   17.90    4.70
  -3 -11   7   12.60    6.20
  -3 -11   7   19.00    5.20
  -3 -11   7   12.20    4.90
   3 -11  -7    5.00    5.70
  -3  11   7   22.30    5.70
   1 -11  -7  109.49   11.80
   1 -11  -7  101.49    7.30
   1 -11  -7  104.39    7.60
  -1 -11   7  131.19   12.20
  -1 -11   7   96.19    9.40
  -1 -11   7  105.19    9.30
  -1  11   7   94.99    8.10
   1  11  -7  107.79    6.50
   1 -11   7   91.39    9.50
   1 -11   7   89.49    8.90
  -1 -11  -7   82.09    6.80
  -1 -11  -7   91.39    7.10
   1 -11   7   75.19    9.80
  -1 -11  -7   82.59   10.90
  -1  11  -7   82.69    8.00
   1  11   7   87.39    6.70
   3 -11   7   67.09    7.90
  -3 -11  -7   67.59    5.80
  -3 -11  -7   73.79    6.40
  -3 -11  -7   81.39    9.90
   3 -11   7   72.79    8.70
   3 -11   7   64.39   10.00
  -3  11  -7   71.89    8.80
  -5 -11  -7   96.49   11.40
   5 -11   7   96.49   13.80
   5 -11   7  123.39   12.00
   5 -11   7  109.79   10.90
  -5  11  -7   87.19    8.60
   7 -11   7   16.50    7.30
  -7 -11  -7   18.10    7.00
   7 -11   7   28.00    9.50
   7 -11   7   20.30    6.80
  -7  11  -7   22.10    7.10
   9 -11   7  157.88   15.20
  -9 -11  -7  164.98   14.10
   9 -11   7  156.58   16.70
   9 -11   7  164.48   19.20
  -9  11  -7  151.48   14.00
  11 -11   7   28.30   13.60
  11 -11   7   33.00   10.30
  11 -11   7   18.80   10.50
 -11  11  -7   11.40    9.30
 -10 -12   7  625.54   20.90
  10 -12  -7  628.64   30.20
  10 -12  -7  633.84   24.60
 -10 -12   7  643.94   22.80
 -10  12   7  645.64   27.90
   8 -12  -7   10.30    6.80
   8 -12  -7   10.80    9.20
  -8 -12   7    3.30    5.60
  -8 -12   7    7.00    5.70
  -8  12   7   15.20    9.40
   6 -12  -7    9.90    5.90
  -6 -12   7    5.60    6.80
  -6 -12   7   16.00    5.70
  -6 -12   7   -0.40    5.50
   6 -12  -7   -6.00    7.70
  -6  12   7    8.20    7.40
   4 -12  -7   41.10    8.80
  -4 -12   7   39.10    6.90
  -4 -12   7   57.39    9.10
   4 -12  -7   46.10    6.70
  -4 -12   7   35.60    6.30
  -4  12   7   53.09    8.20
   2 -12  -7  282.47   12.40
  -2 -12   7  280.37   17.20
  -2 -12   7  274.97   14.10
   2 -12  -7  291.17   17.40
  -2 -12   7  249.78   13.50
  -2  12   7  271.37   12.80
   0 -12   7   16.70    5.90
   0 -12  -7   16.90    4.50
   0 -12   7   16.30    5.80
   0 -12  -7   14.10    7.10
   0 -12   7   17.30    7.70
  -2 -12  -7   47.50    6.30
   2 -12   7   45.40    7.60
  -2 -12  -7   43.10    5.20
  -2 -12  -7   29.60    7.60
   2 -12   7   43.40    7.30
   2 -12   7   49.99    9.70
  -2  12  -7   40.40    6.30
  -4 -12  -7   13.20    6.90
   4 -12   7   10.40    6.50
   4 -12   7    5.00    7.80
   4 -12   7    0.70    6.00
  -4  12  -7    1.90    6.30
   6 -12   7  739.83   26.20
   6 -12   7  756.02   31.20
  -6 -12  -7  708.13   26.60
   6 -12   7  740.93   27.10
  -6  12  -7  767.22   24.60
   8 -12   7  177.08   20.70
   8 -12   7  247.08   18.70
   8 -12   7  231.68   17.10
  -8 -12  -7  226.88   16.70
  -8  12  -7  242.98   16.20
  -9 -13   7   19.90    6.90
   9 -13  -7    4.80    8.00
   9 -13  -7   22.70   12.20
  -9  13   7   -1.30   11.30
   7 -13  -7  171.48   14.00
  -7 -13   7  164.18   12.50
  -7 -13   7  164.58   13.20
   7 -13  -7  126.59   15.00
  -7  13   7  150.78   17.30
  -5 -13   7  481.95   19.60
   5 -13  -7  456.45   23.90
   5 -13  -7  480.35   18.50
  -5 -13   7  457.15   18.20
  -5 -13   7  469.75   22.10
  -5  13   7  446.36   19.90
   3 -13  -7  139.59   15.70
   3 -13  -7  132.09   10.50
  -3 -13   7  133.69   12.20
  -3 -13   7  108.39   12.80
  -3 -13   7  114.89   11.80
   1 -13  -7  289.77   12.70
   1 -13  -7  261.07   11.10
   1 -13  -7  246.68   18.20
  -1 -13   7  262.77   19.10
  -1 -13   7  284.87   14.80
  -1 -13   7  282.97   15.20
   1 -13   7 1146.79   33.70
  -1 -13  -7 1105.69   27.40
  -1 -13  -7 1102.99   29.50
  -1 -13  -7 1078.29   36.10
   1 -13   7 1119.99   38.00
   1 -13   7 1141.99   32.90
   3 -13   7   76.09    9.70
   3 -13   7   82.69   10.10
   3 -13   7  105.49   14.50
  -3 -13  -7   98.59   13.90
  -5 -13  -7  110.09   14.70
   5 -13   7  109.99   14.60
   5 -13   7  101.99   11.90
   5 -13   7  106.39   13.30
   7 -13   7   51.59   13.00
  -7 -13  -7   60.19   10.90
   7 -13   7   58.89   10.20
   7 -13   7   60.79   10.50
   6 -14  -7    1.70    7.00
   6 -14  -7   13.20    7.90
  -6 -14   7   14.80    7.40
   6 -14  -7    5.30    7.10
  -6 -14   7   10.30    7.30
   6 -14  -7   10.80   12.00
   4 -14  -7  361.36   23.40
  -4 -14   7  349.87   18.00
  -4 -14   7  345.57   17.30
   4 -14  -7  360.66   15.90
   4 -14  -7  352.46   16.80
  -4 -14   7  391.76   22.50
   4 -14  -7  369.86   16.60
  -2 -14   7  718.13   29.70
   2 -14  -7  734.33   22.70
  -2 -14   7  727.23   25.00
  -2 -14   7  678.23   24.30
   2 -14  -7  705.33   22.00
   2 -14  -7  696.93   29.90
   2 -14  -7  659.33   20.60
   0 -14   7  428.56   19.70
   0 -14  -7  421.36   14.70
   0 -14  -7  414.86   12.80
   0 -14  -7  460.55   24.00
   0 -14   7  454.55   19.70
   0 -14   7  456.25   25.10
   2 -14   7   15.10   10.90
  -2 -14  -7   14.70    9.10
   2 -14   7    7.90    7.10
   2 -14   7   15.50    7.50
   4 -14   7  691.53   27.10
   4 -14   7  718.03   26.60
   4 -14   7  683.43   32.00
  -4 -14  -7  699.53   29.10
  16   0  -8   31.00    9.20
 -16   0   8   36.50    9.80
 -16   0   8   53.89   10.40
 -16   0   8   48.90   10.50
 -14   0   8  428.46   19.70
 -14   0   8  427.76   19.70
 -14   0   8  445.66   16.40
 -14   0   8  426.96   21.00
  14   0  -8  403.16   19.60
  14   0  -8  422.76   16.70
  12   0  -8 1182.08   30.90
 -12   0   8 1134.99   34.40
 -12   0   8 1116.69   35.30
  12   0  -8 1182.68   29.30
 -12   0   8 1149.48   33.30
 -10   0   8 1874.11   47.20
  10   0  -8 1834.12   44.90
 -10   0   8 1838.42   48.10
  10   0  -8 1980.90   46.90
  -8   0   8   -4.40    3.50
  -8   0   8    3.60    3.80
   8   0  -8   -4.00    4.20
   8   0  -8    0.00    2.70
   8   0  -8    4.20    4.80
  -6   0   8 2155.88   52.59
  -6   0   8 2196.98   51.99
   6   0  -8 2302.87   53.19
   6   0  -8 2212.78   52.39
   6   0  -8 2167.78   50.79
  -4   0   8  588.24   18.60
   4   0  -8  631.34   18.70
   4   0  -8  625.84   20.20
  -4   0   8  593.64   17.40
   4   0  -8  579.84   17.30
  -4   0   8  605.24   18.20
   4   0  -8  575.94   17.90
   2   0  -8  960.40   24.90
   2   0  -8  904.31   25.00
  -2   0   8  919.51   25.20
   2   0  -8  936.41   27.00
  -2   0   8  936.71   23.80
  -2   0   8  909.31   24.70
   0   0   8  143.69    7.10
   0   0  -8  159.48    8.00
   0   0  -8  165.38   10.20
   0   0   8  141.29    9.30
   0   0   8  143.19    7.70
   0   0  -8  143.59    7.10
   0   0  -8  146.39    7.70
   2   0   8  291.77   11.00
   2   0   8  273.37    9.90
  -2   0  -8  263.47   13.10
  -2   0  -8  292.37   11.20
  -2   0  -8  284.47   10.80
   2   0   8  289.37   10.80
  -2   0  -8  283.67   10.30
   4   0   8 1738.43   45.00
  -4   0  -8 1818.62   43.80
  -4   0  -8 1873.31   43.20
  -4   0  -8 1838.52   48.10
   4   0   8 1836.82   43.00
  -4   0  -8 1813.12   42.20
  -6   0  -8  635.34   17.90
   6   0   8  625.14   18.70
  -6   0  -8  653.93   18.90
  -6   0  -8  608.14   18.90
  -6   0  -8  584.84   19.40
   6   0   8  623.34   18.60
  -8   0  -8  804.92   23.90
   8   0   8  800.02   22.10
  -8   0  -8  874.81   24.10
   8   0   8  856.21   24.00
   8   0   8  868.61   23.90
  -8   0  -8  862.41   23.00
  10   0   8  670.53   18.30
 -10   0  -8  679.63   20.40
  10   0   8  694.83   21.50
  10   0   8  699.23   21.30
 -10   0  -8  674.83   21.40
 -12   0  -8 2067.99   50.39
  12   0   8 2119.49   51.39
 -14   0  -8  147.89   11.90
 -16   0  -8   65.09    9.30
 -17  -1   8  966.10   34.50
 -17  -1   8 1117.69   35.80
 -17  -1   8 1008.40   36.70
  17  -1  -8  958.60   35.90
 -17   1   8 1041.70   35.80
  17   1  -8 1002.10   36.50
 -17   1   8  964.30   35.30
 -17   1   8  968.90   37.70
 -15  -1   8  836.62   30.60
 -15  -1   8  847.12   25.00
  15  -1  -8  839.62   30.20
  15  -1  -8  833.62   26.00
 -15  -1   8  842.92   29.30
 -15  -1   8  808.72   28.40
 -15   1   8  851.61   25.00
 -15   1   8  821.92   29.20
  15   1  -8  801.42   29.80
 -15   1   8  801.12   29.80
 -15   1   8  868.91   31.60
  13  -1  -8   24.10    5.20
  13  -1  -8   25.30    5.80
 -13  -1   8   13.90    7.10
 -13  -1   8   11.70    6.10
 -13  -1   8   18.80    6.80
  13   1  -8   17.60    5.40
  13   1  -8   25.50    4.50
  13   1  -8   14.60    6.50
 -13   1   8   43.20    8.20
 -13   1   8   17.70    5.10
 -13   1   8   14.30    8.00
 -13   1   8   16.40    6.30
  11  -1  -8  141.39    9.30
  11  -1  -8  132.99   12.20
 -11  -1   8  138.89   11.50
 -11  -1   8  138.39   15.20
 -11  -1   8  139.99   10.70
 -11   1   8  147.49   11.00
 -11   1   8  126.39   10.60
 -11   1   8  139.59   11.50
  11   1  -8  134.79    8.80
  11   1  -8  164.48   11.30
 -11   1   8  139.79    9.10
   9  -1  -8  883.11   26.50
  -9  -1   8  877.41   26.30
   9  -1  -8  911.31   25.00
  -9  -1   8  891.11   27.20
   9   1  -8  970.80   26.50
  -9   1   8  886.51   26.40
   9   1  -8  891.31   24.40
  -9   1   8  930.01   27.70
   7  -1  -8 1985.50   49.40
  -7  -1   8 2115.69   50.19
   7  -1  -8 2002.50   47.80
  -7  -1   8 2055.09   49.20
   7  -1  -8 2128.79   50.09
  -7   1   8 2054.29   50.09
   7   1  -8 1978.50   47.40
  -7   1   8 2048.70   49.30
   7   1  -8 2124.29   51.39
   7   1  -8 1978.40   49.30
   5  -1  -8  371.26   13.40
  -5  -1   8  371.36   14.00
   5  -1  -8  374.76   12.60
   5  -1  -8  368.16   13.50
  -5  -1   8  379.76   13.60
   5  -1  -8  382.26   14.90
  -5   1   8  343.07   12.40
   5   1  -8  346.77   13.40
  -5   1   8  356.76   13.40
   5   1  -8  343.87   13.30
   5   1  -8  397.06   15.10
  -5   1   8  370.56   14.00
   5   1  -8  359.46   12.50
   3  -1  -8  165.58    8.30
  -3  -1   8  169.38    8.30
  -3  -1   8  149.29    7.90
   3  -1  -8  150.88    9.80
  -3  -1   8  163.28    8.70
   3  -1  -8  171.98    7.70
   3  -1  -8  151.28    8.00
  -3   1   8  154.58    8.20
  -3   1   8  156.38    8.50
   3   1  -8  168.28   10.00
  -3   1   8  163.08    7.80
   3   1  -8  163.88    8.50
   3   1  -8  148.79    7.50
   3   1  -8  151.18    8.20
  -1  -1   8 4532.75   95.79
  -1  -1   8 4276.37   97.09
   1  -1  -8 4428.16   96.49
   1  -1  -8 4548.54   97.29
   1  -1  -8 4343.37   95.79
  -1  -1   8 4383.66   96.79
   1  -1  -8 4487.25   99.39
   1   1  -8 4502.05   96.89
  -1   1   8 4467.85   95.19
   1   1  -8 4502.85   99.29
   1   1  -8 4566.14   97.49
  -1   1   8 4564.74   97.29
  -1   1   8 4416.06   96.49
   1   1  -8 4357.86   95.99
   1  -1   8 1921.71   45.40
  -1  -1  -8 1890.31   47.80
   1  -1   8 1927.71   45.00
  -1  -1  -8 1921.41   44.70
  -1  -1  -8 1912.21   45.20
  -1  -1  -8 1920.71   44.10
   1  -1   8 1904.01   43.90
   1   1   8 1923.41   45.10
  -1   1  -8 1921.11   45.10
  -1   1  -8 1908.81   44.40
  -1   1  -8 1968.80   45.60
   1   1   8 1927.11   43.30
  -1   1  -8 1900.41   47.70
   1   1   8 1906.51   44.70
   3  -1   8   45.50    5.20
  -3  -1  -8   36.30    4.80
  -3  -1  -8   44.10    4.50
  -3  -1  -8   46.90    5.00
   3  -1   8   45.30    5.50
  -3  -1  -8   46.20    6.90
   3   1   8   44.20    4.90
  -3   1  -8   30.40    4.10
  -3   1  -8   37.60    5.10
   3   1   8   55.29    5.30
  -3   1  -8   49.30    4.80
  -3   1  -8   48.00    7.00
   5  -1   8  180.78    8.90
   5  -1   8  181.08   11.00
  -5  -1  -8  191.88    8.70
  -5  -1  -8  169.18    7.80
  -5  -1  -8  192.48    8.90
   5   1   8  187.38    8.80
  -5   1  -8  177.18    8.30
   5   1   8  186.58    9.70
   5   1   8  189.48    8.70
  -5   1  -8  182.68    9.00
   5   1   8  178.98    8.50
  -5   1  -8  183.88    9.20
  -7  -1  -8  579.04   17.60
   7  -1   8  570.14   18.20
  -7  -1  -8  578.44   16.90
   7  -1   8  578.44   21.00
   7  -1   8  575.34   18.50
  -7  -1  -8  579.74   18.00
  -7   1  -8  612.24   17.60
  -7   1  -8  580.64   18.60
   7   1   8  564.84   17.10
   7   1   8  580.94   17.60
   7   1   8  590.54   17.90
  -7   1  -8  585.34   18.40
  -9  -1  -8 1763.42   43.70
  -9  -1  -8 1779.92   42.30
   9  -1   8 1818.22   44.20
   9  -1   8 1779.12   43.70
  -9  -1  -8 1775.32   43.10
   9  -1   8 1768.22   41.10
  -9   1  -8 1778.82   43.90
   9   1   8 1738.43   41.10
  -9   1  -8 1843.02   44.80
  -9   1  -8 1815.92   42.90
   9   1   8 1725.13   42.80
   9   1   8 1763.02   43.00
  11  -1   8  499.15   18.60
  11  -1   8  486.75   18.10
  11  -1   8  476.65   13.70
 -11  -1  -8  453.55   16.30
  11   1   8  487.15   14.00
 -11   1  -8  489.25   17.10
  11   1   8  480.75   17.30
  13  -1   8  308.37   16.20
 -13  -1  -8  295.37   13.70
 -13   1  -8  297.77   14.40
 -15  -1  -8 1295.17   35.70
 -15   1  -8 1261.17   36.20
  16  -2  -8    8.20    8.90
 -16  -2   8    9.00    8.40
 -16  -2   8   -6.70    7.60
 -16  -2   8   23.50    9.40
  16   2  -8    4.10    9.20
 -16   2   8   -1.20   10.90
 -16   2   8   -7.70    9.00
 -16   2   8   15.40    9.00
  14  -2  -8  324.57   14.40
 -14  -2   8  343.67   17.80
 -14  -2   8  332.07   18.20
 -14  -2   8  342.87   17.20
  14  -2  -8  310.17   15.30
  14   2  -8  312.77   17.90
  14   2  -8  313.77   13.90
 -14   2   8  332.67   14.40
 -14   2   8  322.87   17.90
 -14   2   8  332.37   18.40
 -14   2   8  305.67   19.10
  12  -2  -8 1599.64   41.10
 -12  -2   8 1539.75   44.80
 -12  -2   8 1547.55   49.30
  12  -2  -8 1644.54   40.40
 -12  -2   8 1687.93   43.00
  12   2  -8 1633.84   43.80
  12   2  -8 1635.74   39.70
 -12   2   8 1707.83   44.70
 -12   2   8 1607.84   43.40
 -12   2   8 1608.04   40.70
 -12   2   8 1656.83   45.10
 -10  -2   8  381.36   16.60
 -10  -2   8  386.46   15.50
  10  -2  -8  389.46   14.70
  10   2  -8  408.36   15.60
 -10   2   8  399.86   16.20
 -10   2   8  406.46   14.80
 -10   2   8  404.86   16.60
  10   2  -8  386.96   13.80
 -10   2   8  399.26   17.20
  -8  -2   8  235.78   12.10
  -8  -2   8  216.38   11.00
   8  -2  -8  234.08   10.40
   8  -2  -8  226.18   11.60
  -8   2   8  247.38   12.50
   8   2  -8  226.68    9.90
  -8   2   8  230.08   10.60
  -8   2   8  234.18   11.60
   8   2  -8  241.78   12.30
  -6  -2   8  208.38   10.00
   6  -2  -8  193.78    9.80
   6  -2  -8  194.18    9.00
   6  -2  -8  196.98    9.90
  -6  -2   8  202.38   10.30
  -6   2   8  205.18   10.70
   6   2  -8  184.88    8.80
   6   2  -8  216.28   11.20
  -6   2   8  195.98   10.10
   6   2  -8  191.78   10.20
  -4  -2   8 1214.68   31.20
   4  -2  -8 1067.29   28.50
   4  -2  -8 1096.09   28.00
  -4  -2   8 1125.89   29.70
  -4  -2   8 1078.29   28.90
   4  -2  -8 1111.69   29.10
   4   2  -8 1064.59   29.10
  -4   2   8 1083.79   28.80
  -4   2   8 1125.99   29.60
   4   2  -8 1113.29   29.10
  -4   2   8 1105.69   27.70
   4   2  -8 1110.19   30.40
   4   2  -8 1114.09   28.00
   2  -2  -8  892.71   23.30
  -2  -2   8  841.22   24.40
   2  -2  -8  891.31   26.30
   2  -2  -8  952.50   24.10
  -2  -2   8  894.31   24.30
   2  -2  -8  935.51   24.50
  -2   2   8  887.11   23.90
   2   2  -8  876.01   24.30
  -2   2   8  894.61   24.30
   2   2  -8  876.91   24.50
   2   2  -8  892.61   26.30
   2   2  -8  890.71   23.40
  -2   2   8  916.51   22.90
   0  -2  -8  245.08    9.30
   0  -2   8  249.97    9.80
   0  -2  -8  239.98   12.10
   0  -2   8  238.38   10.10
   0  -2  -8  244.28   10.00
   0  -2   8  242.98   10.40
   0  -2  -8  238.48    9.60
   0   2  -8  251.37    9.60
   0   2  -8  247.08   10.40
   0   2   8  243.18    9.70
   0   2   8  229.08   10.10
   0   2   8  245.18    8.70
   0   2  -8  239.38   12.30
   0   2  -8  230.58   10.00
   0   2   8  247.18    9.90
   2  -2   8  717.03   22.50
  -2  -2  -8  700.23   20.10
   2  -2   8  694.43   19.60
   2  -2   8  735.63   20.90
  -2  -2  -8  723.43   19.80
  -2  -2  -8  712.03   19.20
   2  -2   8  725.33   20.50
  -2  -2  -8  718.23   23.30
   2   2   8  730.33   19.90
   2   2   8  720.73   20.50
  -2   2  -8  726.93   20.60
  -2   2  -8  736.33   20.90
  -2   2  -8  717.33   19.80
  -2   2  -8  656.83   22.20
   4  -2   8 2825.52   63.89
   4  -2   8 2803.72   64.29
  -4  -2  -8 2847.22   63.59
   4  -2   8 2843.72   66.89
  -4  -2  -8 2863.91   62.99
  -4  -2  -8 2818.92   62.29
  -4   2  -8 2907.71   64.59
   4   2   8 2716.33   63.49
  -4   2  -8 2892.21   64.09
   4   2   8 2781.32   62.99
   4   2   8 2781.32   63.19
  -4   2  -8 2785.22   63.09
  -6  -2  -8 1029.00   26.00
   6  -2   8 1002.40   29.80
   6  -2   8 1020.60   27.30
  -6  -2  -8  950.60   24.90
  -6  -2  -8 1008.50   26.30
   6  -2   8 1008.90   26.90
  -6   2  -8  954.70   25.90
  -6   2  -8 1001.50   27.00
  -6   2  -8  977.70   27.10
   6   2   8  948.21   28.80
   6   2   8  983.50   25.90
  -6   2  -8 1005.40   26.30
   8  -2   8   91.19   10.00
  -8  -2  -8  106.89    7.40
   8  -2   8   90.59    8.20
  -8  -2  -8  109.39    7.60
  -8  -2  -8  109.19    6.80
   8  -2   8  102.69    8.70
  -8   2  -8   94.29    8.70
  -8   2  -8   83.19    7.90
   8   2   8  100.49    7.90
  -8   2  -8   84.19    9.10
   8   2   8   92.19    6.80
  -8   2  -8  111.99    7.40
 -10  -2  -8  814.92   24.00
 -10  -2  -8  815.22   23.70
  10  -2   8  812.32   21.60
 -10  -2  -8  841.62   23.20
  10  -2   8  859.41   25.80
  10  -2   8  870.61   25.40
  10  -2   8  820.12   28.00
  10   2   8  852.51   24.10
 -10   2  -8  833.42   25.80
  10   2   8  835.12   21.90
  10   2   8  841.62   23.90
  12  -2   8  231.88   14.00
 -12   2  -8  219.18   12.40
 -14  -2  -8  329.27   15.30
  14  -2   8  339.47   19.20
 -14   2  -8  336.57   16.50
 -16  -2  -8   97.29   10.50
 -16   2  -8   81.29   10.80
 -17  -3   8  373.26   21.90
  17  -3  -8  316.87   22.40
 -17  -3   8  330.07   20.70
 -17  -3   8  345.07   22.40
 -17   3   8  333.77   26.90
 -17   3   8  326.47   23.20
 -17   3   8  309.77   21.90
  17   3  -8  334.67   22.90
 -15  -3   8  573.44   23.50
 -15  -3   8  535.45   22.40
  15  -3  -8  552.94   24.20
  15  -3  -8  554.24   21.40
 -15  -3   8  564.54   24.50
 -15   3   8  557.34   19.70
 -15   3   8  574.24   24.50
  15   3  -8  555.44   25.20
 -15   3   8  553.14   26.50
 -15   3   8  567.54   24.90
  13  -3  -8   43.30    7.00
 -13  -3   8   45.20    7.80
 -13  -3   8   33.30    7.70
  13  -3  -8   49.00    7.20
 -13  -3   8   31.60    6.90
 -13   3   8   44.60    8.40
 -13   3   8   38.80    8.30
 -13   3   8   37.90    6.40
  13   3  -8   55.69    9.00
  13   3  -8   44.50    6.10
 -13   3   8   47.80    8.40
  11  -3  -8  189.58   10.80
 -11  -3   8  210.28   11.90
 -11  -3   8  181.08   13.70
  11  -3  -8  198.98   11.30
  11   3  -8  198.38    9.80
 -11   3   8  194.08   12.60
 -11   3   8  163.88   14.50
 -11   3   8  192.08   10.80
 -11   3   8  190.38   13.80
   9  -3  -8   48.30    5.70
  -9  -3   8   60.59    7.20
   9  -3  -8   38.00    5.90
  -9  -3   8   56.09    7.80
  -9   3   8   63.79    7.90
   9   3  -8   60.19    8.60
  -9   3   8   65.49    8.90
  -9   3   8   73.09    7.10
  -9   3   8   60.59    7.50
   9   3  -8   68.09    6.30
   7  -3  -8  791.02   22.20
  -7  -3   8  788.42   23.80
   7  -3  -8  764.32   22.90
   7  -3  -8  763.12   23.20
  -7  -3   8  798.12   23.20
  -7   3   8  769.12   24.00
  -7   3   8  793.82   23.40
  -7   3   8  775.72   22.80
   7   3  -8  803.82   23.30
   7   3  -8  774.92   21.30
   5  -3  -8 1427.76   35.70
   5  -3  -8 1538.05   35.40
   5  -3  -8 1448.66   36.30
  -5  -3   8 1389.96   36.60
  -5  -3   8 1439.06   36.10
  -5   3   8 1418.96   36.80
  -5   3   8 1454.05   34.70
  -5   3   8 1442.96   36.20
   5   3  -8 1351.66   36.00
   5   3  -8 1453.35   34.70
  -5   3   8 1395.76   35.90
   5   3  -8 1448.26   36.90
  -3  -3   8  242.88   10.40
   3  -3  -8  236.48   10.20
   3  -3  -8  253.47    9.70
  -3  -3   8  241.18   10.90
   3  -3  -8  247.38   10.10
   3   3  -8  221.78   10.50
   3   3  -8  256.27    9.80
  -3   3   8  237.88   10.50
   3   3  -8  223.88   10.60
  -3   3   8  239.28   10.20
  -3   3   8  236.98    9.30
  -3   3   8  249.28   10.60
   3   3  -8  239.28   12.00
  -1  -3   8 1635.64   40.60
  -1  -3   8 1653.13   39.40
  -1  -3   8 1626.34   41.70
  -1  -3   8 1644.94   40.20
   1  -3  -8 1753.42   40.40
   1  -3  -8 1629.44   39.00
   1  -3  -8 1724.63   39.70
  -1   3   8 1678.43   39.50
   1   3  -8 1640.44   42.10
  -1   3   8 1690.03   37.90
   1   3  -8 1652.33   40.60
   1   3  -8 1681.83   39.50
  -1   3   8 1599.84   40.40
  -1   3   8 1690.23   40.10
   1   3  -8 1658.43   40.20
  -1  -3  -8 1360.16   32.00
  -1  -3  -8 1320.47   32.40
   1  -3   8 1228.88   31.70
  -1  -3  -8 1295.27   35.30
   1  -3   8 1314.17   33.20
  -1  -3  -8 1309.07   31.40
   1  -3   8 1306.37   35.00
   1  -3   8 1285.07   32.60
   1   3   8 1352.56   32.30
   1   3   8 1302.77   33.10
  -1   3  -8 1282.57   33.10
  -1   3  -8 1290.17   32.70
   1   3   8 1306.37   29.80
  -1   3  -8 1274.97   34.90
   1   3   8 1259.57   33.80
  -1   3  -8 1305.37   32.10
  -3  -3  -8  143.19    8.00
  -3  -3  -8  140.79    6.80
  -3  -3  -8  134.59    7.20
   3  -3   8  140.19    8.10
   3  -3   8  140.69    9.50
   3  -3   8  140.49    8.10
  -3   3  -8  129.79    8.20
   3   3   8  125.99    7.80
  -3   3  -8  133.39    7.30
   3   3   8  145.09    8.60
  -3   3  -8  148.49    8.50
   5  -3   8  446.66   15.80
  -5  -3  -8  469.35   14.30
   5  -3   8  463.05   15.70
  -5  -3  -8  458.85   13.80
  -5  -3  -8  451.35   14.50
   5  -3   8  426.96   17.60
  -5   3  -8  463.45   14.50
  -5   3  -8  427.86   14.60
  -5   3  -8  453.25   16.00
   5   3   8  449.76   14.10
   5   3   8  479.05   15.30
   5   3   8  458.95   14.50
  -5   3  -8  477.35   16.10
  -7  -3  -8  903.21   24.30
   7  -3   8  901.91   25.90
   7  -3   8  919.01   25.60
  -7  -3  -8  917.41   23.70
   7  -3   8  866.21   28.20
  -7  -3  -8  907.51   23.20
   7   3   8  922.31   23.80
   7   3   8  960.50   25.00
  -7   3  -8  888.91   24.20
  -7   3  -8  855.41   25.70
  -7   3  -8  860.51   24.40
   7   3   8  888.51   24.20
  -7   3  -8  852.51   25.70
   7   3   8  926.41   24.00
  -9  -3  -8   94.39    7.30
   9  -3   8  100.09   11.00
   9  -3   8   98.69    9.50
   9  -3   8  114.99    9.40
  -9  -3  -8   98.59    7.10
  -9  -3  -8   88.79    7.30
  -9   3  -8   74.09    9.70
   9   3   8   84.19    8.00
  -9   3  -8   93.79    9.50
  -9   3  -8   86.39    7.80
   9   3   8  101.29    7.20
   9   3   8  101.29    7.80
  11  -3   8  171.88   12.80
 -11  -3  -8  175.08    9.60
  11  -3   8  188.08   13.00
 -11   3  -8  179.48   10.80
  11   3   8  160.88    8.70
  11   3   8  160.58   13.40
  13  -3   8    4.00    7.40
 -13  -3  -8   11.90    5.50
  13  -3   8    5.30    8.90
 -13   3  -8   11.60    6.00
 -15  -3  -8  632.14   22.50
  15  -3   8  658.93   30.70
 -15   3  -8  654.63   24.20
 -16  -4   8  169.68   15.30
 -16  -4   8  173.68   17.50
 -16  -4   8  192.68   17.10
  16  -4  -8  190.88   18.50
  16   4  -8  166.18   18.80
 -16   4   8  178.28   17.90
 -16   4   8  161.28   18.60
 -16   4   8  194.38   22.50
 -14  -4   8    8.00    6.80
 -14  -4   8   -7.10    6.20
 -14  -4   8   -2.40    6.70
  14  -4  -8   -6.90    5.90
  14  -4  -8  -10.40    6.30
 -14   4   8    9.10    6.00
 -14   4   8  -11.00    6.80
 -14   4   8   11.60    8.40
  12  -4  -8  538.05   19.90
 -12  -4   8  518.85   21.10
  12  -4  -8  557.94   19.80
 -12  -4   8  558.34   21.60
 -12  -4   8  552.64   20.20
 -12   4   8  563.24   19.20
 -12   4   8  584.94   22.30
 -12   4   8  596.14   22.40
 -12   4   8  544.55   23.00
  12   4  -8  514.95   21.30
  12   4  -8  550.54   17.00
  10  -4  -8  230.68   12.10
 -10  -4   8  220.68   15.00
  10  -4  -8  210.58   14.60
 -10  -4   8  240.98   13.00
  10   4  -8  234.98   11.10
 -10   4   8  229.38   13.10
  10   4  -8  233.08   10.10
  10   4  -8  225.78   12.60
 -10   4   8  214.88   11.40
 -10   4   8  221.08   12.90
 -10   4   8  222.58   14.30
  -8  -4   8   -2.10    3.20
   8  -4  -8    2.00    3.10
  -8  -4   8   -3.30    3.10
   8  -4  -8    1.80    3.60
   8   4  -8   -2.50    4.40
  -8   4   8    8.20    4.20
  -8   4   8    2.20    3.40
   8   4  -8   -1.70    2.70
  -8   4   8    4.30    4.20
  -8   4   8    4.90    4.90
   6  -4  -8  161.78    9.30
  -6  -4   8  151.58    9.20
   6  -4  -8  150.28    8.30
   6  -4  -8  150.18    9.00
  -6  -4   8  156.28    8.90
  -6   4   8  158.98    9.40
   6   4  -8  171.38    8.00
   6   4  -8  147.29   10.10
  -6   4   8  159.58   10.00
  -6   4   8  162.38    9.20
   4  -4  -8  540.35   17.20
  -4  -4   8  535.85   17.80
  -4  -4   8  521.45   17.10
   4  -4  -8  529.05   16.70
   4  -4  -8  538.55   16.30
  -4   4   8  535.05   17.10
  -4   4   8  528.95   17.50
  -4   4   8  534.05   17.50
  -4   4   8  539.45   15.80
   4   4  -8  549.05   18.60
   4   4  -8  544.85   16.10
   2  -4  -8   -1.60    2.30
   2  -4  -8    5.90    2.90
  -2  -4   8   -3.60    2.60
  -2  -4   8   -3.50    2.80
   2  -4  -8   -1.60    2.10
  -2  -4   8    3.50    2.70
  -2   4   8   -0.60    2.60
   2   4  -8   -0.60    2.80
   2   4  -8   -0.50    2.20
  -2   4   8    1.80    2.50
  -2   4   8    1.40    2.70
   2   4  -8    0.60    4.20
  -2   4   8   -0.60    2.80
   0  -4   8   -2.60    2.40
   0  -4  -8    3.80    2.40
   0  -4   8    6.60    3.40
   0  -4   8    4.50    2.70
   0  -4  -8    1.50    2.40
   0  -4  -8    0.10    2.10
   0   4   8    6.20    2.50
   0   4  -8    1.60    3.30
   0   4   8    8.40    2.80
   0   4  -8    1.90    3.20
   0   4   8    5.60    2.90
   0   4  -8    3.50    4.40
   0   4  -8    3.00    2.60
  -2  -4  -8  170.18    7.60
   2  -4   8  161.78    8.60
  -2  -4  -8  168.58    8.10
  -2  -4  -8  184.08    8.00
   2  -4   8  184.18   10.70
   2  -4   8  169.38    9.20
   2   4   8  173.58    9.00
  -2   4  -8  176.88    9.30
   2   4   8  176.28    8.00
  -2   4  -8  156.68    9.20
  -2   4  -8  175.68    8.40
   4  -4   8  565.14   18.60
   4  -4   8  545.75   20.30
  -4  -4  -8  579.74   16.30
  -4  -4  -8  583.64   17.10
  -4  -4  -8  607.34   16.80
   4  -4   8  577.94   18.40
  -4   4  -8  667.33   27.30
   4   4   8  581.14   16.60
   4   4   8  600.54   17.00
   4   4   8  547.15   17.90
  -4   4  -8  586.64   18.80
  -4   4  -8  559.34   17.50
   6  -4   8  963.40   27.00
   6  -4   8  979.80   27.60
  -6  -4  -8  984.40   24.40
  -6  -4  -8  990.60   24.90
  -6  -4  -8  957.90   25.30
   6  -4   8  960.70   29.90
  -6   4  -8  959.50   24.70
  -6   4  -8  985.20   26.20
   6   4   8  974.50   25.50
   6   4   8  987.50   24.90
   6   4   8  957.10   26.10
  -6   4  -8  964.70   27.70
   6   4   8  965.20   24.70
   8  -4   8  195.38   11.60
   8  -4   8  208.98   11.30
  -8  -4  -8  204.48    8.80
  -8  -4  -8  197.08    9.10
   8  -4   8  208.48   13.50
  -8  -4  -8  187.18    9.00
   8   4   8  214.78    9.90
  -8   4  -8  202.68   10.30
   8   4   8  213.88    9.70
  -8   4  -8  177.88   10.20
   8   4   8  188.58    9.20
  -8   4  -8  174.08   11.60
   8   4   8  199.68   10.50
 -10  -4  -8   39.00    5.00
 -10  -4  -8   37.90    5.00
  10  -4   8   35.80    6.50
  10  -4   8   38.90    7.30
 -10   4  -8   33.10    7.20
 -10   4  -8   41.60    6.10
  10   4   8   32.80    5.30
  10   4   8   32.30    6.10
 -10   4  -8   47.70   10.70
  12  -4   8   56.79    9.90
 -12  -4  -8   52.49    6.40
  12  -4   8   55.39    8.90
  12  -4   8   33.80    9.40
 -12   4  -8   48.20    7.30
  14  -4   8   94.19   12.40
 -14  -4  -8  110.99   11.00
  14  -4   8   93.79   14.30
 -14   4  -8   99.99   12.60
 -15  -5   8  104.99   12.00
  15  -5  -8   93.29   10.60
 -15  -5   8   91.99   11.40
  15  -5  -8  122.09   16.90
 -15  -5   8  107.79   13.20
  15   5  -8  104.19   13.30
 -15   5   8  107.19   11.90
 -15   5   8  104.09   15.70
 -15   5   8  100.59   12.80
 -15   5   8  114.29   15.10
  13  -5  -8    3.60    6.00
 -13  -5   8   16.10    6.60
 -13  -5   8    1.30    6.30
  13  -5  -8   14.00    6.90
 -13  -5   8    5.40    5.60
 -13   5   8   -9.10    8.20
 -13   5   8   13.80    5.50
 -13   5   8   -0.90    6.30
  13   5  -8   -1.90    6.80
 -13   5   8   15.40    8.00
 -11  -5   8  117.59   11.10
 -11  -5   8  101.59    9.50
  11  -5  -8  107.39    9.70
  11  -5  -8   92.89   10.20
 -11   5   8  116.09   13.30
 -11   5   8  133.49    9.90
 -11   5   8  125.89   12.50
  11   5  -8  119.99    8.00
  11   5  -8  128.49   13.00
 -11   5   8  116.39   11.80
   9  -5  -8   59.79    8.30
   9  -5  -8   60.39    7.30
   9  -5  -8   62.49    8.40
  -9  -5   8   58.59    8.10
  -9  -5   8   53.39    9.60
  -9   5   8   66.89    7.70
  -9   5   8   52.29    7.30
   9   5  -8   51.29    6.80
  -9   5   8   47.70    7.40
   9   5  -8   56.89    6.70
   9   5  -8   53.29    6.00
  -9   5   8   66.59    8.30
   7  -5  -8  159.78   10.20
  -7  -5   8  175.08    9.70
  -7  -5   8  167.48   10.30
   7  -5  -8  169.28    9.10
   7  -5  -8  163.98    9.90
  -7   5   8  157.78   10.30
  -7   5   8  181.78   11.30
   7   5  -8  184.48   10.80
  -7   5   8  157.18   10.30
  -7   5   8  153.98    9.80
   7   5  -8  173.48    8.10
  -5  -5   8    3.70    3.40
   5  -5  -8    0.50    3.00
  -5  -5   8    0.80    3.20
  -5  -5   8    2.80    3.50
   5  -5  -8    5.00    3.40
   5  -5  -8   -0.10    2.60
  -5   5   8    5.60    3.70
  -5   5   8    2.20    3.30
  -5   5   8   -7.10    4.40
   5   5  -8    2.00    2.80
  -5   5   8    7.00    3.60
   5   5  -8   -3.90    4.70
  -3  -5   8  470.45   15.80
  -3  -5   8  441.26   16.00
   3  -5  -8  475.45   15.60
   3  -5  -8  461.75   14.70
   3  -5  -8  471.35   15.10
  -3  -5   8  471.65   16.80
   3   5  -8  451.45   14.40
   3   5  -8  462.35   17.50
  -3   5   8  438.26   15.20
  -3   5   8  473.15   13.70
  -3   5   8  458.15   16.20
  -3   5   8  470.45   15.80
   1  -5  -8   82.29    6.10
  -1  -5   8   79.19    6.80
  -1  -5   8   91.09    7.00
   1  -5  -8   79.29    5.60
  -1  -5   8   76.49    7.80
   1  -5  -8   81.89    6.10
   1   5  -8   88.99    7.70
   1   5  -8   82.19    6.20
  -1   5   8   82.89    4.90
  -1   5   8   72.49    6.90
   1  -5   8   31.20    4.70
  -1  -5  -8   29.40    3.80
  -1  -5  -8   31.40    4.00
   1  -5   8   36.40    6.00
  -1  -5  -8   32.90    4.60
   1  -5   8   31.70    4.70
   1   5   8   30.80    4.70
   1   5   8   28.10    3.80
  -1   5  -8   36.20    4.80
  -1   5  -8   25.80    4.90
   1   5   8   33.00    4.20
  -3  -5  -8  213.18    8.60
   3  -5   8  227.78   10.40
   3  -5   8  217.18   10.70
  -3  -5  -8  213.48    8.90
   3  -5   8  210.08   12.10
  -3  -5  -8  208.88    9.00
   3   5   8  210.88    8.80
  -3   5  -8  214.68   11.00
   3   5   8  206.78   10.30
   3   5   8  225.08    9.00
  -3   5  -8  229.58    9.80
   5  -5   8   13.30    4.20
   5  -5   8   22.00    5.10
  -5  -5  -8   16.00    3.30
  -5  -5  -8   20.70    3.40
   5  -5   8   20.40    5.00
  -5  -5  -8   20.80    3.30
   5   5   8   19.80    3.60
  -5   5  -8   20.30    3.60
  -5   5  -8   24.30    4.50
  -5   5  -8   16.50    4.50
   5   5   8   16.00    4.20
   5   5   8   22.20    3.70
   5   5   8   19.50    4.10
   7  -5   8   20.40    5.40
  -7  -5  -8   19.80    3.60
   7  -5   8   14.10    4.60
  -7  -5  -8   18.30    3.40
   7  -5   8   23.50    6.20
  -7  -5  -8   14.80    3.40
   7   5   8   27.40    4.00
  -7   5  -8   21.10    4.30
  -7   5  -8   22.90    6.30
   7   5   8   19.50    4.60
   7   5   8   11.70    4.00
   7   5   8   26.60    4.90
  -7   5  -8   16.70    4.30
   9  -5   8   81.59    9.80
   9  -5   8  101.69   12.30
  -9  -5  -8   83.99    6.80
   9  -5   8  113.99   10.80
  -9  -5  -8   82.49    6.70
   9   5   8   97.79    8.30
  -9   5  -8   83.19    8.40
  11  -5   8   46.00    8.20
  11  -5   8   54.19   10.20
 -11  -5  -8   60.69    7.40
  11  -5   8   64.39    9.30
 -11   5  -8   57.59    7.60
  13  -5   8  103.69   14.10
 -13  -5  -8   81.59   12.00
  13  -5   8   73.59   10.80
 -13   5  -8  106.69   11.50
 -15  -5  -8   99.19   12.60
  15  -5   8  126.59   15.30
  15  -5   8  119.99   17.10
 -15   5  -8  127.89   14.60
  16  -6  -8   31.30   11.10
 -16  -6   8   10.00    9.90
 -16  -6   8   17.50    8.80
 -16  -6   8   25.30   10.20
 -16   6   8   30.40   13.20
  16   6  -8    2.00   11.60
 -16   6   8   20.10   11.10
 -14  -6   8   89.09   10.10
 -14  -6   8  100.09   13.60
  14  -6  -8  113.99   13.00
 -14  -6   8   80.39   10.60
  14  -6  -8  105.09   14.50
 -14   6   8   79.29   13.10
  14   6  -8   81.29   12.40
 -14   6   8   88.09   12.90
 -14   6   8   93.69   11.80
 -14   6   8   79.89   12.30
 -12  -6   8   97.59   11.30
 -12  -6   8  115.19   10.90
  12  -6  -8  106.49   10.80
 -12   6   8   80.79   11.50
 -12   6   8  125.49   13.30
 -12   6   8  113.69   14.60
 -12   6   8   88.59   10.50
  12   6  -8  108.39   11.50
  10  -6  -8   14.70    5.50
  10  -6  -8   18.50    8.80
 -10  -6   8    9.90    4.80
  10  -6  -8   14.10    5.00
 -10  -6   8    8.30    5.10
 -10   6   8   12.30    5.10
  10   6  -8   17.10    5.90
 -10   6   8   22.60    7.40
 -10   6   8   17.00    6.10
 -10   6   8    5.20    6.30
  10   6  -8   18.60    4.10
   8  -6  -8   76.19    9.10
   8  -6  -8   70.29    8.60
   8  -6  -8   79.09    7.40
  -8  -6   8   76.09    8.40
  -8  -6   8   58.19    7.10
   8   6  -8   77.19    6.30
   8   6  -8   65.99    8.10
  -8   6   8   71.59    8.10
  -8   6   8   90.29   10.80
  -8   6   8   71.49    9.20
  -8   6   8   85.49    9.30
   8   6  -8   71.89    8.90
   6  -6  -8   62.29    6.70
   6  -6  -8   62.39    6.40
  -6  -6   8   65.39    7.20
   6  -6  -8   68.29    7.20
  -6  -6   8   66.79    7.60
  -6  -6   8   72.99    7.80
   6   6  -8   69.09    6.00
  -6   6   8   71.79    7.90
  -6   6   8   72.29    8.70
  -6   6   8   74.29    7.70
  -6   6   8   79.99    8.00
  -6   6   8   63.29    7.70
   6   6  -8   74.89    6.80
   6   6  -8   68.39    9.10
   4  -6  -8  980.70   26.30
  -4  -6   8 1041.80   28.30
   4  -6  -8 1015.10   27.50
  -4  -6   8  999.10   28.40
   4  -6  -8 1003.20   26.80
  -4  -6   8 1018.10   27.60
  -4   6   8  962.30   26.80
  -4   6   8  992.40   27.50
   4   6  -8  903.61   35.00
  -4   6   8  992.10   28.40
   4   6  -8 1007.00   25.50
  -4   6   8 1035.10   25.00
  -4   6   8 1038.40   27.80
   2  -6  -8  475.45   15.00
  -2  -6   8  450.05   16.10
   2  -6  -8  465.85   15.30
  -2  -6   8  414.36   15.30
  -2  -6   8  451.75   17.10
   2  -6  -8  462.65   14.50
   2   6  -8  454.45   14.60
  -2   6   8  453.65   16.50
  -2   6   8  463.05   15.10
  -2   6   8  473.05   12.60
   0  -6   8  357.86   13.90
   0  -6  -8  345.17   11.80
   0  -6  -8  365.76   12.50
   0  -6  -8  350.46   12.00
   0  -6   8  347.67   13.40
   0  -6   8  352.76   15.10
   0   6   8  346.17   12.30
   0   6   8  325.67   13.90
   0   6   8  349.96   12.10
   0   6  -8  350.46   12.70
   2  -6   8  120.89    8.40
  -2  -6  -8  112.69    6.60
   2  -6   8  121.79    8.40
   2  -6   8  115.59    9.60
  -2  -6  -8  106.39    6.30
  -2  -6  -8  113.59    6.70
   2   6   8  107.99    8.30
  -2   6  -8  111.39    7.50
   2   6   8  117.79    7.10
   2   6   8  113.59    6.60
   4  -6   8  243.88   12.00
  -4  -6  -8  236.28    9.10
  -4  -6  -8  237.68    9.10
  -4  -6  -8  229.98    9.40
   4  -6   8  226.18   11.20
   4  -6   8  260.57   13.60
   4   6   8  246.28   11.60
  -4   6  -8  244.68    7.90
  -4   6  -8  226.88   10.60
   4   6   8  243.08   11.40
   6  -6   8    3.30    4.20
   6  -6   8    7.40    4.50
  -6  -6  -8    2.10    3.10
   6  -6   8    0.60    4.40
  -6  -6  -8    2.20    2.70
  -6  -6  -8   -1.40    2.50
   6   6   8    6.80    3.80
  -6   6  -8    5.40    3.00
   6   6   8    3.60    4.10
   6   6   8    4.60    3.40
  -6   6  -8    0.90    3.60
   8  -6   8   17.80    6.50
  -8  -6  -8   22.50    3.40
   8  -6   8   29.50    6.10
   8  -6   8   15.00    5.20
  -8  -6  -8   20.00    4.60
  -8  -6  -8   25.70    4.10
  -8   6  -8   20.00    5.10
   8   6   8   25.50    5.40
 -10  -6  -8   12.10    5.20
 -10  -6  -8    9.90    3.80
  10  -6   8   13.40    7.10
  10  -6   8    6.00    8.00
  10  -6   8    5.80    6.00
 -10   6  -8   10.70    5.30
 -12  -6  -8  194.28   10.70
  12  -6   8  198.68   17.00
  12  -6   8  182.98   16.20
  12  -6   8  175.88   18.00
 -12   6  -8  171.98   13.20
  14  -6   8  156.58   21.50
  14  -6   8  130.79   15.10
 -14  -6  -8  146.39   11.90
 -14   6  -8  141.69   14.60
  15  -7  -8  139.99   15.60
 -15  -7   8  155.98   16.00
 -15  -7   8  142.79   15.70
 -15  -7   8  156.08   14.30
  15  -7  -8  123.19   15.30
 -15   7   8  142.79   18.80
 -15   7   8  119.79   15.40
  15   7  -8  156.58   16.70
 -13  -7   8  415.16   19.00
  13  -7  -8  419.86   18.90
 -13  -7   8  407.56   19.30
 -13  -7   8  407.56   18.10
  13  -7  -8  421.36   20.80
 -13   7   8  378.46   17.90
 -13   7   8  397.76   21.90
  13   7  -8  413.76   21.40
 -13   7   8  365.96   21.20
  11  -7  -8   53.99    7.60
  11  -7  -8   60.49    9.40
 -11  -7   8   46.20    7.20
 -11  -7   8   46.90    7.10
 -11   7   8   52.29    7.90
  11   7  -8   61.69    8.90
 -11   7   8   34.70    7.90
 -11   7   8   75.19   11.00
 -11   7   8   33.00    8.70
   9  -7  -8  503.05   18.00
  -9  -7   8  498.85   18.20
  -9  -7   8  517.45   19.30
   9   7  -8  514.35   18.80
  -9   7   8  513.55   19.10
  -9   7   8  398.96   22.50
  -9   7   8  498.75   19.90
  -9   7   8  512.15   21.00
   9   7  -8  500.55   13.90
  -7  -7   8  606.04   19.70
   7  -7  -8  574.54   21.40
   7  -7  -8  567.34   19.90
   7  -7  -8  574.24   20.30
   7  -7  -8  586.24   19.10
  -7  -7   8  606.24   28.20
   7   7  -8  606.44   19.20
  -7   7   8  595.94   20.70
  -7   7   8  596.34   20.50
   7   7  -8  605.54   16.30
   7   7  -8  595.04   20.00
  -7   7   8  589.54   20.40
  -5  -7   8   35.20    5.70
   5  -7  -8   39.90    5.00
  -5  -7   8   33.30    5.20
   5  -7  -8   30.90    4.80
  -5  -7   8   36.00    6.10
   5  -7  -8   44.80    5.70
  -5   7   8   34.30    5.80
  -5   7   8   33.70    5.80
   5   7  -8   42.80    5.30
   5   7  -8   37.30    7.00
  -5   7   8   36.20    5.90
  -5   7   8   38.10    5.10
  -5   7   8   37.30    5.70
   5   7  -8   40.50    5.00
  -3  -7   8  273.17   12.10
   3  -7  -8  301.27   11.10
  -3  -7   8  264.57   13.30
   3  -7  -8  276.97   11.60
  -3  -7   8  268.57   12.50
   3  -7  -8  291.37   11.50
   3   7  -8  286.87   10.00
  -3   7   8  267.67   12.90
  -3   7   8  280.17   12.00
  -3   7   8  280.37   12.00
   3   7  -8  270.77   10.60
  -3   7   8  264.37    9.00
  -1  -7   8  366.66   14.60
  -1  -7   8  365.26   14.00
   1  -7  -8  376.96   12.50
  -1  -7   8  362.76   15.70
   1  -7  -8  378.86   13.10
   1  -7  -8  349.07   12.60
  -1   7   8  373.56   12.90
   1   7  -8  373.26   10.80
   1   7  -8  368.16   12.90
  -1   7   8  361.56   13.20
  -1   7   8  344.27   14.80
   1  -7   8  158.18    9.70
   1  -7   8  184.48   11.50
   1  -7   8  172.98    9.50
  -1  -7  -8  159.08    7.90
  -1  -7  -8  165.88    7.80
  -1  -7  -8  137.69    7.50
   1   7   8  161.98    7.80
   1   7   8  158.98    8.30
  -1   7  -8  167.18    8.90
   1   7   8  169.38   10.40
   3  -7   8  140.99    9.20
  -3  -7  -8  141.09    7.30
  -3  -7  -8  128.29    7.00
  -3  -7  -8  143.49    7.10
   3  -7   8  140.79    9.70
   3  -7   8  123.09   10.80
   3   7   8  142.69    9.60
   3   7   8  137.29    7.40
  -3   7  -8  141.49    8.60
   5  -7   8    3.50    5.20
   5  -7   8    3.50    3.80
  -5  -7  -8    3.50    2.90
   5  -7   8    2.60    4.10
   5  -7   8    0.30    4.90
  -5  -7  -8    7.80    2.80
  -5  -7  -8    4.80    3.10
   5   7   8   -1.40    3.40
  -5   7  -8    4.40    3.80
   5   7   8    6.20    3.10
   5   7   8    6.30    3.30
   5   7   8   -2.30    3.80
   7  -7   8  751.12   24.60
  -7  -7  -8  741.73   19.70
  -7  -7  -8  737.93   19.50
  -7  -7  -8  744.43   18.70
   7  -7   8  737.83   26.80
   7  -7   8  683.73   27.30
   7   7   8  743.03   23.00
  -7   7  -8  725.93   22.60
   9  -7   8  270.77   15.40
  -9  -7  -8  270.97   10.80
  -9  -7  -8  295.57   11.30
   9  -7   8  285.57   18.00
   9  -7   8  321.37   16.60
  -9   7  -8  299.97   14.30
  11  -7   8   68.29   10.40
  11  -7   8   75.79   11.00
  11  -7   8   62.79   11.20
 -11  -7  -8   77.39    7.90
 -11   7  -8   69.09    8.70
  13  -7   8   38.00   12.40
  13  -7   8   -0.70    9.60
 -13   7  -8   14.20    7.50
  14  -8  -8   48.40   12.00
 -14  -8   8   23.30    8.50
 -14  -8   8   38.10    8.30
 -14  -8   8   37.30    9.50
  14  -8  -8   31.60    9.20
 -14   8   8   48.00    9.90
 -14   8   8   35.50   11.90
  14   8  -8   36.90   12.00
 -14   8   8   42.10   13.50
  12  -8  -8  501.55   20.50
 -12  -8   8  515.05   20.70
  12  -8  -8  450.85   22.40
 -12  -8   8  485.05   19.40
  12   8  -8  471.95   22.00
 -12   8   8  469.75   20.10
 -12   8   8  473.35   23.00
 -12   8   8  478.85   23.30
 -10  -8   8  529.55   20.50
 -10  -8   8  528.05   19.30
  10  -8  -8  523.85   19.60
  10  -8  -8  544.95   22.50
 -10   8   8  505.05   21.90
 -10   8   8  523.85   22.40
 -10   8   8  529.75   20.40
  10   8  -8  523.85   20.90
  -8  -8   8   32.20    6.00
  -8  -8   8   31.00    5.90
   8  -8  -8   47.00    8.00
   8  -8  -8   37.90    5.80
  -8   8   8   28.70    6.60
  -8   8   8   32.40    7.60
  -8   8   8   32.40    7.70
   8   8  -8   25.70    6.20
  -8   8   8   24.10    7.10
   8   8  -8   29.60    3.60
   6  -8  -8  169.68   11.00
   6  -8  -8  159.38    9.60
  -6  -8   8  166.38   10.90
  -6  -8   8  169.98   11.10
   6  -8  -8  128.79   15.30
   6  -8  -8  149.59   10.30
  -6  -8   8  167.78   10.20
  -6   8   8  166.38   11.70
   6   8  -8  168.88    7.50
  -6   8   8  169.08   11.00
  -6   8   8  153.28   11.50
  -6   8   8  164.88    9.70
   6   8  -8  174.68    9.70
  -4  -8   8 2283.87   56.69
  -4  -8   8 2290.67   54.99
   4  -8  -8 2301.67   53.69
   4  -8  -8 2296.97   54.89
  -4  -8   8 2306.67   55.79
   4  -8  -8 2339.97   54.19
  -4   8   8 2282.47   56.59
   4   8  -8 2266.27   51.59
  -4   8   8 2307.27   54.99
  -4   8   8 2390.16   50.29
  -4   8   8 2366.86   54.49
   4   8  -8 2318.67   51.89
   2  -8  -8  283.97   11.70
  -2  -8   8  295.87   14.30
  -2  -8   8  284.97   12.40
  -2  -8   8  301.47   13.20
   2  -8  -8  282.87   11.20
   2  -8  -8  254.27   11.70
  -2   8   8  272.17   13.50
  -2   8   8  299.87   11.90
  -2   8   8  298.37   12.50
   2   8  -8  300.07    9.50
  -2   8   8  273.87   12.00
   2   8  -8  297.87   11.20
   0  -8  -8   68.89    6.30
   0  -8  -8   71.69    6.30
   0  -8   8   81.19    7.60
   0  -8   8   80.29    8.20
   0  -8  -8   79.29    6.30
   0  -8   8   79.49    9.20
   0   8   8   80.89    6.70
   0   8   8   66.99    6.50
   0   8  -8   72.29    6.90
   0   8   8   85.19    8.40
   0   8   8   85.59    7.40
  -2  -8  -8  399.56   12.80
   2  -8   8  406.86   16.10
   2  -8   8  408.16   15.60
  -2  -8  -8  396.46   13.20
   2  -8   8  420.96   18.10
  -2  -8  -8  390.16   12.90
   2   8   8  402.96   12.90
   2   8   8  410.16   12.80
   2   8   8  390.46   16.20
  -2   8  -8  401.56   14.60
   4  -8   8  332.17   14.90
   4  -8   8  246.18   18.00
  -4  -8  -8  328.97   11.10
  -4  -8  -8  312.17   11.40
  -4  -8  -8  321.07   10.20
   4  -8   8  279.67   20.40
   4   8   8  318.07    9.50
   4   8   8  321.97   10.40
   4   8   8  330.37   14.50
  -4   8  -8  310.47   13.10
   6  -8   8  363.26   18.70
  -6  -8  -8  370.46   12.00
   6  -8   8  378.86   16.10
  -6  -8  -8  368.36   12.10
  -6  -8  -8  363.36   10.70
   6  -8   8  392.96   16.90
   6   8   8  375.36   16.00
  -6   8  -8  334.07   17.10
   8  -8   8   77.09   10.80
   8  -8   8   86.49   11.60
  -8  -8  -8   80.39    6.30
  -8  -8  -8   79.49    6.80
   8  -8   8   84.69   10.80
  -8   8  -8   76.99    9.50
  10  -8   8  236.78   16.40
 -10  -8  -8  230.18   10.60
  10  -8   8  233.88   18.70
 -10   8  -8  237.48   14.30
  12  -8   8  660.03   26.90
  12  -8   8  666.23   28.60
  12  -8   8  687.93   30.80
 -12   8  -8  619.94   24.30
 -13  -9   8   92.49   11.00
 -13  -9   8  105.29   13.30
 -13  -9   8  107.49   12.70
  13  -9  -8   98.09   11.30
  13  -9  -8   67.39   12.80
 -13   9   8   93.59   14.10
 -13   9   8   65.89   12.50
  13   9  -8   68.59   12.50
 -11  -9   8  100.19   11.50
  11  -9  -8  109.79   13.30
 -11  -9   8  114.69   12.20
  11  -9  -8   98.79   11.80
 -11   9   8   87.19   12.00
 -11   9   8  125.19   13.40
  11   9  -8   91.89   11.30
 -11   9   8   82.19   12.20
   9  -9  -8 1032.60   30.80
  -9  -9   8 1106.09   31.90
   9  -9  -8 1040.00   34.30
  -9  -9   8 1104.49   30.70
  -9   9   8 1017.00   32.80
  -9   9   8 1064.69   32.70
  -9   9   8 1059.29   32.10
   9   9  -8 1074.19   31.00
  -7  -9   8  789.92   25.20
   7  -9  -8  803.02   28.00
  -7  -9   8  822.22   25.00
   7  -9  -8  819.82   24.70
  -7  -9   8  841.22   26.10
  -7   9   8  796.52   26.50
   7   9  -8  817.32   24.00
  -7   9   8  825.42   26.70
  -7   9   8  816.72   26.40
  -5  -9   8    8.30    4.50
  -5  -9   8   -0.50    4.10
   5  -9  -8    1.10    5.30
   5  -9  -8    2.70    3.80
  -5  -9   8    2.50    5.00
   5   9  -8   -0.30    2.90
  -5   9   8    2.20    5.80
   5   9  -8   -2.40    3.90
  -5   9   8    0.80    5.10
  -5   9   8    8.60    5.20
  -3  -9   8   22.60    5.10
   3  -9  -8   18.80    4.30
   3  -9  -8   20.80    5.70
  -3  -9   8   25.40    5.90
  -3  -9   8   19.70    5.10
   3  -9  -8   21.20    4.40
   3  -9  -8   21.20    4.50
   3   9  -8   22.00    4.20
  -3   9   8   25.90    5.50
  -3   9   8   26.60    6.30
  -3   9   8   29.10    6.70
   3   9  -8   24.70    3.80
   1  -9  -8  183.28    9.10
  -1  -9   8  192.78   11.00
  -1  -9   8  178.18   12.60
  -1  -9   8  185.58   13.80
   1  -9  -8  184.58    9.30
   1  -9  -8  178.58    9.10
  -1   9   8  196.38    9.80
  -1   9   8  186.78   12.10
  -1   9   8  176.38   10.10
  -1   9   8  172.68    9.50
   1   9  -8  177.48    9.30
  -1  -9  -8 1743.33   40.90
  -1  -9  -8 1758.32   41.50
   1  -9   8 1619.84   48.00
  -1  -9  -8 1735.93   40.50
   1  -9   8 1843.52   45.20
   1  -9   8 1755.62   44.10
   1   9   8 1751.72   40.70
   1   9   8 1733.23   48.50
  -1   9  -8 1735.63   42.10
   1   9   8 1806.42   40.30
  -3  -9  -8  366.16   11.50
   3  -9   8  387.66   16.00
   3  -9   8  396.86   19.10
  -3  -9  -8  367.46   12.50
   3  -9   8  369.26   16.30
  -3  -9  -8  359.36   12.50
   3   9   8  397.76   11.90
   3   9   8  371.26   19.30
  -3   9  -8  372.86   14.60
   5  -9   8   90.49    9.90
  -5  -9  -8   92.69    6.50
  -5  -9  -8   88.99    6.60
   5  -9   8   77.59   10.50
  -5   9  -8   76.79    9.80
   7  -9   8 1109.99   33.00
   7  -9   8 1093.49   36.70
   7  -9   8 1142.99   33.90
  -7  -9  -8 1112.69   26.20
  -7  -9  -8 1109.19   27.30
  -7   9  -8 1106.29   31.40
   9  -9   8  754.42   28.00
   9  -9   8  769.72   31.10
   9  -9   8  759.92   27.00
  -9   9  -8  742.73   25.10
  11  -9   8   26.90    9.70
  11  -9   8   32.20   11.00
  11  -9   8   45.30   13.30
 -11   9  -8   34.10    8.70
 -12 -10   8  345.87   18.30
  12 -10  -8  329.47   23.20
 -12 -10   8  361.26   17.40
  12 -10  -8  346.97   19.00
  12  10  -8  331.07   22.10
 -12  10   8  338.27   22.80
  10 -10  -8  376.06   17.90
 -10 -10   8  375.66   17.90
 -10 -10   8  371.76   16.60
  10 -10  -8  385.66   22.50
 -10  10   8  376.16   20.70
 -10  10   8  368.66   21.50
  10  10  -8  409.06   19.20
 -10  10   8  363.46   19.60
  -8 -10   8    3.30    5.70
  -8 -10   8   -2.90    6.60
   8 -10  -8   10.20    7.50
  -8 -10   8   -3.40    5.30
   8 -10  -8   14.50    5.90
   8  10  -8    9.30    6.40
  -8  10   8   -7.90    7.80
  -8  10   8    2.70    7.50
  -8  10   8   10.00    7.30
  -6 -10   8  634.34   22.00
   6 -10  -8  583.34   20.10
   6 -10  -8  606.84   24.40
  -6 -10   8  599.04   22.20
  -6 -10   8  610.24   20.80
  -6  10   8  623.64   22.20
  -6  10   8  590.94   22.80
   6  10  -8  609.54   19.10
  -6  10   8  646.64   22.30
   4 -10  -8  528.95   21.90
  -4 -10   8  538.25   19.00
  -4 -10   8  510.25   19.30
   4 -10  -8  513.05   17.60
  -4 -10   8  502.35   20.40
  -4  10   8  534.65   19.00
  -4  10   8  495.35   20.60
   4  10  -8  535.25   13.90
  -4  10   8  517.15   19.50
   4  10  -8  534.15   15.30
   2 -10  -8 1041.50   27.70
  -2 -10   8 1052.49   30.50
  -2 -10   8 1055.59   32.70
   2 -10  -8 1036.30   32.80
  -2 -10   8 1029.30   29.80
   2  10  -8 1031.50   26.10
  -2  10   8 1080.49   32.30
  -2  10   8 1089.49   28.60
   0 -10  -8   53.69    8.50
   0 -10   8   42.60    6.70
   0 -10   8   47.10    6.70
   0 -10  -8   59.39    6.70
   0 -10   8   57.59    9.00
   0 -10  -8   38.40    5.00
   0  10   8   35.40    7.20
   0  10   8   51.59    7.00
   0  10  -8   48.60    5.90
  -2 -10  -8 1272.97   31.30
   2 -10   8 1255.27   38.90
   2 -10   8 1308.67   36.10
   2 -10   8 1258.17   35.00
  -2 -10  -8 1277.97   31.60
   2  10   8 1279.87   30.20
  -2  10  -8 1291.97   33.20
   2  10   8 1309.67   37.20
  -4 -10  -8 1240.88   30.30
  -4 -10  -8 1273.27   28.30
   4 -10   8 1272.87   39.90
  -4 -10  -8 1277.17   30.90
   4 -10   8 1285.37   36.70
   4 -10   8 1302.47   35.90
  -4  10  -8 1313.07   34.20
   6 -10   8  293.27   19.40
   6 -10   8  308.37   17.10
  -6 -10  -8  287.07    9.10
   6 -10   8  289.57   15.70
  -6 -10  -8  283.87   11.00
  -6  10  -8  294.87   14.70
   8 -10   8    4.30    7.30
   8 -10   8   11.20    9.90
   8 -10   8    4.10    7.30
  -8  10  -8    2.30    6.70
  10 -10   8  554.44   28.80
 -10 -10  -8  533.15   22.00
  10 -10   8  535.05   24.90
  10 -10   8  557.24   26.30
 -10  10  -8  556.14   22.70
 -11 -11   8   76.19    9.20
 -11 -11   8   53.79    9.10
  11 -11  -8   78.49   13.30
  11 -11  -8   91.59   11.10
 -11  11   8   85.29   14.30
   9 -11  -8 1055.29   32.70
   9 -11  -8 1121.59   38.40
  -9 -11   8 1102.89   33.10
  -9 -11   8 1058.39   31.40
  -9  11   8 1122.09   35.80
   7 -11  -8  814.82   25.40
  -7 -11   8  772.72   25.00
   7 -11  -8  837.12   30.90
  -7 -11   8  763.32   26.10
  -7 -11   8  777.72   26.80
  -7  11   8  772.82   27.20
  -5 -11   8   29.20    6.10
  -5 -11   8   14.50    5.70
   5 -11  -8   22.60    6.00
   5 -11  -8   25.80    8.10
  -5 -11   8   15.90    7.10
  -5  11   8   24.60    6.90
  -3 -11   8   33.30    6.50
  -3 -11   8   30.50    6.20
  -3 -11   8   36.90    8.30
   3 -11  -8   35.50    6.20
   3 -11  -8   44.90    8.90
  -3  11   8   44.60    7.30
  -1 -11   8  671.93   25.90
   1 -11  -8  659.63   20.00
  -1 -11   8  647.04   23.00
   1 -11  -8  643.64   25.40
  -1 -11   8  673.93   22.50
  -1  11   8  682.53   20.40
   1  11  -8  675.53   18.50
  -1 -11  -8  974.30   32.80
  -1 -11  -8 1018.50   26.70
   1 -11   8 1025.90   34.40
   1 -11   8 1068.39   31.40
   1 -11   8 1076.29   30.80
  -1  11  -8 1054.19   27.60
  -3 -11  -8  320.37   17.60
  -3 -11  -8  320.97   11.70
   3 -11   8  330.47   19.50
  -3 -11  -8  321.27   12.20
   3 -11   8  330.47   16.90
   3 -11   8  318.67   16.00
  -3  11  -8  332.67   14.60
   5 -11   8   48.80    8.60
  -5 -11  -8   51.29    8.90
   5 -11   8   82.99   12.90
   5 -11   8   63.29    8.90
  -5  11  -8   66.39    8.80
   7 -11   8 1089.99   35.30
   7 -11   8 1095.29   34.20
   7 -11   8 1084.79   38.80
  -7 -11  -8 1065.59   33.90
  -7  11  -8 1083.49   32.00
   9 -11   8  925.41   31.30
  -9 -11  -8  867.01   30.10
   9 -11   8  844.12   32.60
   9 -11   8  810.02   36.20
  -9  11  -8  882.81   29.20
  -8 -12   8  155.58   13.20
   8 -12  -8  155.38   13.80
   8 -12  -8  160.18   18.70
  -8 -12   8  155.48   13.70
  -8  12   8  149.49   17.70
   6 -12  -8  478.35   19.30
   6 -12  -8  452.55   24.20
  -6 -12   8  477.85   20.10
  -6 -12   8  481.85   19.00
  -6 -12   8  468.85   21.60
  -6  12   8  463.95   21.30
  -4 -12   8 1731.03   44.70
   4 -12  -8 1715.43   43.50
  -4 -12   8 1732.13   45.70
   4 -12  -8 1703.13   49.70
  -4 -12   8 1714.63   47.90
  -4  12   8 1714.83   44.30
  -2 -12   8  305.97   15.80
   2 -12  -8  284.27   18.80
  -2 -12   8  300.17   15.50
   2 -12  -8  291.67   13.70
  -2 -12   8  305.67   18.80
  -2  12   8  286.47   15.90
   0 -12   8   37.90    7.40
   0 -12  -8   44.70    6.20
   0 -12   8   29.50    6.80
   0 -12  -8   18.30    8.20
   0 -12   8   32.30    9.00
  -2 -12  -8  274.97    8.70
   2 -12   8  278.77   16.40
  -2 -12  -8  276.07   12.00
   2 -12   8  290.07   19.60
   2 -12   8  298.27   16.00
  -2 -12  -8  300.77   18.30
  -2  12  -8  291.27   14.10
   4 -12   8  485.45   21.00
   4 -12   8  528.95   26.30
  -4 -12  -8  489.65   22.50
   4 -12   8  487.45   21.80
  -4  12  -8  474.45   18.90
  -6 -12  -8  374.06   20.30
   6 -12   8  344.47   20.30
   6 -12   8  310.77   18.80
   6 -12   8  346.37   23.90
  -6  12  -8  312.97   17.90
   8 -12   8   63.49   11.40
  -8 -12  -8   74.59   11.70
   8 -12   8   70.99   14.80
   8 -12   8   82.79   13.20
  -8  12  -8   68.89   11.30
  -7 -13   8  419.76   20.10
  -7 -13   8  458.95   19.60
   7 -13  -8  445.56   26.10
   7 -13  -8  478.25   20.60
  -7  13   8  450.15   23.70
  -5 -13   8  235.88   14.50
  -5 -13   8  187.98   17.60
  -5 -13   8  235.18   15.30
   5 -13  -8  180.98   19.10
   5 -13  -8  216.28   14.60
  -3 -13   8  337.97   17.20
  -3 -13   8  359.06   17.30
   3 -13  -8  365.16   16.20
   3 -13  -8  315.67   21.40
  -3 -13   8  352.36   21.10
  -1 -13   8  514.15   21.40
  -1 -13   8  502.25   20.80
   1 -13  -8  526.15   25.20
  -1 -13   8  510.55   25.50
   1 -13   8  100.09   11.40
   1 -13   8   93.19   13.50
  -1 -13  -8   92.29   12.50
   1 -13   8  117.39   13.00
   3 -13   8  307.47   22.80
   3 -13   8  345.47   18.30
   3 -13   8  317.47   18.60
  -3 -13  -8  316.27   20.50
  -5 -13  -8  104.99   13.40
   5 -13   8   77.69   11.70
   5 -13   8   88.69   14.90
   5 -13   8   90.89   11.20
   4 -14  -8  164.88   21.10
   4 -14  -8  190.98   14.70
  -4 -14   8  249.38   20.80
   2 -14  -8  322.47   14.30
   2 -14  -8  318.57   22.50
  -2 -14   8  356.16   18.20
   2 -14  -8  333.57   16.30
  -2 -14   8  325.07   23.40
  -2 -14   8  295.77   17.80
   0 -14  -8   32.80   10.90
   0 -14   8   31.40   12.10
   0 -14   8   43.40    8.50
   0 -14   8   41.60    8.90
   0 -14  -8   33.20    5.70
  -2 -14  -8   98.19   13.60
   2 -14   8  105.59   15.60
   2 -14   8  118.49   15.20
   2 -14   8   93.89   11.30
 -16   0   9   12.80    9.70
 -16   0   9   -2.10    9.70
 -16   0   9    6.20    8.50
  16   0  -9   19.10   10.30
 -14   0   9   11.10    8.90
 -14   0   9    7.80    5.40
  14   0  -9   -1.60    6.20
  14   0  -9    2.80    7.90
 -14   0   9    6.20    7.40
 -14   0   9    1.90    7.10
 -12   0   9    9.30    7.30
 -12   0   9    3.60    5.90
 -12   0   9    7.20    6.10
  12   0  -9    7.00    5.00
  10   0  -9   13.90    7.70
 -10   0   9   -0.60    4.70
 -10   0   9    7.00    5.50
  10   0  -9    3.40    4.00
   8   0  -9    9.60    6.70
  -8   0   9   -2.60    4.10
   8   0  -9    1.80    3.20
  -8   0   9   -6.20    3.90
   6   0  -9    1.20    3.00
   6   0  -9   -1.90    3.60
  -6   0   9    1.30    3.40
   6   0  -9   -3.30    5.40
  -6   0   9    3.00    3.60
   4   0  -9    1.60    3.70
  -4   0   9    3.70    3.00
  -4   0   9    0.70    3.10
   4   0  -9    0.30    4.90
   4   0  -9    0.90    3.10
   4   0  -9   -0.90    2.50
   2   0  -9    3.50    3.50
  -2   0   9   -0.10    2.70
  -2   0   9    5.70    3.30
   2   0  -9    7.70    5.80
   2   0  -9   -3.00    2.20
  -2   0   9   -3.20    3.20
   2   0  -9    0.90    2.80
   0   0  -9    4.30    2.50
   0   0   9    4.00    3.00
   0   0  -9   -1.00    2.80
   0   0   9    6.60    3.10
   0   0   9    4.10    3.30
   0   0  -9   -1.50    2.90
  -2   0  -9    0.40    2.50
  -2   0  -9   -1.80    2.50
  -2   0  -9    6.00    3.30
   2   0   9   -0.90    3.00
   2   0   9    0.80    2.90
  -4   0  -9    5.10    2.80
  -4   0  -9    3.90    3.40
  -4   0  -9    1.20    3.20
   4   0   9    0.10    2.90
   4   0   9    0.80    3.10
  -6   0  -9    2.10    3.40
   6   0   9    1.70    3.50
   6   0   9    3.20    3.60
  -6   0  -9    1.70    4.20
  -6   0  -9   -0.60    2.60
  -8   0  -9   -1.70    4.20
  -8   0  -9    6.70    4.70
  -8   0  -9   -0.40    3.10
   8   0   9    0.00    3.90
   8   0   9    3.60    3.60
   8   0   9    2.60    4.40
  10   0   9    3.20    5.30
 -10   0  -9    3.60    4.10
  10   0   9   -0.50    3.90
  10   0   9    1.90    5.60
  12   0   9   -4.00    6.50
 -12   0  -9   -3.30    4.70
 -14   0  -9   10.60    6.80
  15  -1  -9  338.87   16.90
  15  -1  -9  280.77   19.10
 -15  -1   9  320.07   18.90
 -15  -1   9  297.17   20.60
 -15  -1   9  321.27   17.90
 -15  -1   9  311.97   19.70
 -15   1   9  298.37   21.60
 -15   1   9  338.67   20.00
 -15   1   9  332.97   20.40
  15   1  -9  320.97   16.00
  15   1  -9  266.07   19.90
 -13  -1   9   61.49    8.90
 -13  -1   9   50.69    9.30
  13  -1  -9   88.59   10.20
  13  -1  -9   74.69    9.70
 -13  -1   9  100.99   12.20
 -13   1   9   57.49    9.90
  13   1  -9   92.49   10.20
 -13   1   9  103.69   12.40
 -13   1   9   89.19   11.70
  13   1  -9   72.49   10.30
 -13   1   9   84.09    9.40
  13   1  -9   85.69   10.90
 -11  -1   9  193.08   12.50
  11  -1  -9  202.08   17.60
 -11  -1   9  174.78   13.40
  11  -1  -9  176.38   10.60
  11   1  -9  170.78   10.40
 -11   1   9  186.28   14.10
 -11   1   9  178.08   12.60
 -11   1   9  162.08   10.40
 -11   1   9  142.89   12.00
   9  -1  -9  401.66   20.50
  -9  -1   9  370.36   16.60
  -9  -1   9  377.06   15.80
   9  -1  -9  357.96   14.20
  -9   1   9  390.86   16.20
   9   1  -9  391.26   17.20
  -9   1   9  376.06   17.10
   9   1  -9  354.26   13.90
   7  -1  -9    0.70    3.00
  -7  -1   9    1.30    3.70
  -7  -1   9    3.30    3.60
   7  -1  -9    3.60    4.40
  -7   1   9    8.40    4.50
  -7   1   9    2.70    4.00
   7   1  -9    9.30    3.60
   7   1  -9    5.40    5.70
   5  -1  -9  136.69    9.10
   5  -1  -9  135.79    7.90
   5  -1  -9  135.19    8.90
  -5  -1   9  145.19    9.30
   5  -1  -9  134.29   12.90
  -5  -1   9  137.79    8.80
  -5   1   9  154.38    9.20
   5   1  -9  134.89   11.10
  -5   1   9  137.19    9.10
   5   1  -9  129.19    7.80
   5   1  -9  139.99    9.10
   3  -1  -9   71.69    6.40
   3  -1  -9   57.29    5.50
  -3  -1   9   67.79    7.00
   3  -1  -9   58.89    6.30
  -3  -1   9   73.69    6.70
   3   1  -9   57.19    6.90
  -3   1   9   79.19    7.00
   3   1  -9   68.19    9.10
   3   1  -9   67.49    6.90
   3   1  -9   66.69    5.90
  -3   1   9   69.49    6.80
  -3   1   9   69.49    6.90
  -1  -1   9   28.80    5.20
  -1  -1   9   21.00    4.20
   1  -1  -9   23.70    4.40
  -1  -1   9   22.30    4.20
   1  -1  -9   19.40    3.60
   1  -1  -9   18.70    4.00
   1   1  -9   32.00    4.80
  -1   1   9   18.60    4.10
  -1   1   9   19.80    3.90
   1   1  -9   24.40    4.50
   1   1  -9   23.50    3.80
  -1   1   9   22.30    4.00
  -1  -1  -9  394.36   13.70
   1  -1   9  391.26   13.80
   1  -1   9  418.76   14.50
  -1  -1  -9  455.75   14.70
  -1  -1  -9  438.76   15.00
   1  -1   9  424.56   15.00
   1   1   9  403.26   13.30
   1   1   9  409.46   14.40
  -1   1  -9  446.86   15.30
  -1   1  -9  437.46   14.90
   1   1   9  440.56   16.70
  -1   1  -9  410.66   13.90
   3  -1   9  174.18    9.70
   3  -1   9  179.08    9.30
  -3  -1  -9  194.28    9.50
  -3  -1  -9  191.78    9.20
  -3  -1  -9  177.78    8.60
  -3   1  -9  191.48    8.90
  -3   1  -9  172.28    9.50
   3   1   9  188.28    9.30
  -3   1  -9  174.78    9.50
   3   1   9  189.38    9.30
  -5  -1  -9  425.66   14.10
  -5  -1  -9  425.16   15.20
  -5  -1  -9  423.76   14.70
   5  -1   9  424.86   15.60
   5  -1   9  436.16   15.20
   5   1   9  426.86   14.90
   5   1   9  429.96   14.70
  -5   1  -9  439.96   14.50
  -5   1  -9  425.26   15.60
   5   1   9  416.46   14.70
  -5   1  -9  397.56   15.10
   7  -1   9  312.07   13.30
  -7  -1  -9  303.17   12.60
  -7  -1  -9  297.67   11.60
   7  -1   9  293.47   13.80
  -7  -1  -9  284.17   12.60
   7   1   9  306.77   12.80
  -7   1  -9  329.87   12.30
   7   1   9  290.57   12.00
  -7   1  -9  302.97   13.40
  -7   1  -9  300.37   13.30
   7   1   9  293.57   12.60
   9  -1   9  111.69    8.10
  -9  -1  -9  121.39    9.00
   9  -1   9  115.19   10.20
  -9  -1  -9  133.39    8.50
  -9  -1  -9  103.69    9.80
   9   1   9  131.19    9.90
  -9   1  -9  104.39   11.20
  -9   1  -9  123.59   12.50
   9   1   9  127.49    9.80
   9   1   9  119.89    8.10
  -9   1  -9  123.19    9.90
  11  -1   9   45.60    7.60
  11  -1   9   27.70    4.60
 -11  -1  -9   22.80    5.30
  11   1   9   30.40    5.20
 -11   1  -9   30.30    5.80
  11   1   9   24.80    6.80
  13  -1   9  191.98   23.70
 -13  -1  -9  185.68   12.70
 -13   1  -9  198.58   13.10
 -15  -1  -9   13.50    7.90
 -15   1  -9    2.00    7.60
  16  -2  -9    7.60    8.20
  16  -2  -9    3.20   10.80
 -16  -2   9    9.60    9.30
 -16  -2   9   20.70   10.40
 -16  -2   9   28.50    9.90
 -16   2   9   18.30   12.20
 -16   2   9   16.70   10.80
 -16   2   9   23.60   10.90
  16   2  -9   24.30   11.60
 -14  -2   9  541.15   24.50
 -14  -2   9  566.64   23.60
  14  -2  -9  551.44   21.10
  14  -2  -9  531.45   20.60
 -14  -2   9  516.55   22.60
  14   2  -9  550.64   19.30
 -14   2   9  515.85   22.20
  14   2  -9  522.05   23.90
 -14   2   9  565.94   26.20
 -14   2   9  542.35   23.80
 -14   2   9  537.75   23.70
  12  -2  -9  211.38   12.70
 -12  -2   9  236.58   14.40
  12  -2  -9  227.08   12.90
 -12  -2   9  223.68   15.40
 -12  -2   9  231.08   14.50
 -12   2   9  223.88   12.40
  12   2  -9  224.48   11.80
 -12   2   9  216.28   15.30
  12   2  -9  238.68   15.10
 -12   2   9  236.78   16.00
 -12   2   9  220.28   14.80
 -10  -2   9    7.30    5.40
  10  -2  -9    6.80    4.60
 -10  -2   9   11.70    5.30
  10   2  -9   12.60    7.10
 -10   2   9   14.90    5.60
 -10   2   9   22.80    6.60
  10   2  -9    6.40    4.20
 -10   2   9   13.60    4.60
  -8  -2   9   43.20    6.60
   8  -2  -9   36.80    6.50
  -8  -2   9   53.59    6.80
   8  -2  -9   29.60    4.90
  -8   2   9   36.80    5.50
   8   2  -9   50.89    8.00
  -8   2   9   31.70    6.00
   8   2  -9   47.40    5.70
  -8   2   9   36.00    6.70
   6  -2  -9  983.20   28.10
  -6  -2   9  985.20   28.50
  -6  -2   9 1002.50   27.90
   6  -2  -9  998.80   26.80
  -6   2   9 1006.30   27.70
  -6   2   9  982.40   28.60
   6   2  -9  985.50   26.20
   6   2  -9  974.60   29.30
  -6   2   9 1002.00   27.90
   4  -2  -9  131.39    7.60
  -4  -2   9  119.59    8.90
  -4  -2   9  126.29    8.60
   4  -2  -9  129.89    8.30
   4  -2  -9  119.19    8.20
   4   2  -9  139.59    7.90
  -4   2   9  136.09    8.70
   4   2  -9  141.09    9.30
   4   2  -9  125.29   11.20
  -4   2   9  121.19    8.60
  -2  -2   9   62.59    6.80
  -2  -2   9   68.49    6.50
   2  -2  -9   41.80    5.60
   2  -2  -9   56.39    5.80
   2  -2  -9   54.89    5.50
  -2   2   9   58.69    6.10
   2   2  -9   51.89    8.80
   2   2  -9   51.29    6.40
  -2   2   9   60.09    6.30
   2   2  -9   44.60    5.60
   2   2  -9   59.29    5.40
   0  -2  -9   53.89    5.80
   0  -2  -9   62.69    5.50
   0  -2   9   50.99    6.10
   0  -2   9   54.59    6.10
   0   2  -9   47.20    5.20
   0   2   9   48.00    5.90
   0   2   9   59.19    6.10
   0   2   9   56.89    5.50
   0   2  -9   48.60    6.30
   0   2   9   52.69    6.20
   0   2  -9   56.99    6.90
  -2  -2  -9  167.68    8.40
   2  -2   9  153.78    9.10
  -2  -2  -9  155.78    8.50
  -2  -2  -9  150.38    7.80
   2  -2   9  157.38    8.90
  -2   2  -9  150.78    8.20
   2   2   9  154.08    8.80
   2   2   9  151.38    8.50
  -2   2  -9  157.68    9.20
  -2   2  -9  154.48    9.00
   2   2   9  159.28    8.70
  -4  -2  -9 1438.46   35.50
  -4  -2  -9 1496.65   36.30
   4  -2   9 1470.95   37.10
  -4  -2  -9 1505.55   37.00
   4  -2   9 1418.06   39.80
   4  -2   9 1501.45   37.60
   4   2   9 1470.25   36.40
   4   2   9 1491.55   36.10
  -4   2  -9 1451.05   37.20
   4   2   9 1471.35   36.90
  -4   2  -9 1428.46   36.20
  -4   2  -9 1492.25   37.60
   6  -2   9    4.20    3.80
  -6  -2  -9   -3.40    3.60
   6  -2   9   10.70    5.40
   6  -2   9    6.20    3.70
  -6  -2  -9   -2.60    3.40
  -6  -2  -9   -4.20    2.90
  -6   2  -9    8.90    5.00
  -6   2  -9    4.00    3.00
   6   2   9    5.60    3.60
  -6   2  -9   11.70    5.30
   6   2   9    1.40    3.70
   6   2   9   -1.10    3.40
  -6   2  -9    2.90    4.00
   8  -2   9   23.70    6.20
  -8  -2  -9   15.80    4.00
   8  -2   9   25.40    5.80
  -8  -2  -9   15.70    4.80
   8  -2   9   14.30    4.70
  -8  -2  -9   12.20    4.30
   8   2   9   20.50    4.60
   8   2   9   19.90    4.90
  -8   2  -9   24.80    4.50
  -8   2  -9   12.20    4.80
 -10  -2  -9  549.35   17.80
  10  -2   9  533.95   16.60
  10  -2   9  488.95   24.90
  10  -2   9  560.34   20.60
  10  -2   9  576.34   20.20
 -10   2  -9  538.05   18.70
  10   2   9  547.65   18.80
  10   2   9  541.35   17.10
 -12  -2  -9  306.97   13.90
  12  -2   9  304.47   16.80
 -12   2  -9  303.17   14.90
 -14  -2  -9    3.70    6.70
 -14   2  -9    6.90    6.90
 -15  -3   9  232.08   19.00
  15  -3  -9  280.17   16.90
 -15  -3   9  259.57   18.60
 -15  -3   9  275.97   18.10
 -15   3   9  242.08   20.90
 -15   3   9  305.47   23.30
 -15   3   9  248.28   15.00
 -15   3   9  268.77   19.50
  15   3  -9  273.57   20.20
 -13  -3   9   45.50    9.00
 -13  -3   9   51.59    9.50
  13  -3  -9   51.59    7.80
  13  -3  -9   42.70    7.40
 -13  -3   9   33.70    7.50
 -13   3   9   31.40    8.80
  13   3  -9   45.40    6.90
 -13   3   9   38.50    8.10
 -13   3   9   42.00    9.60
 -13   3   9   38.50    7.30
  13   3  -9   36.80    9.30
 -11  -3   9  180.68   13.30
  11  -3  -9  169.88   11.60
  11  -3  -9  161.98   11.20
 -11  -3   9  168.28   12.40
  11   3  -9  168.48   10.30
 -11   3   9  183.08   14.90
 -11   3   9  198.28   13.50
 -11   3   9  135.19   17.40
  11   3  -9  200.78   13.20
 -11   3   9  186.98   11.50
  -9  -3   9 1061.69   31.00
  -9  -3   9  857.11   33.20
   9   3  -9 1065.59   29.70
  -9   3   9 1077.29   29.40
  -9   3   9 1053.19   30.60
  -9   3   9 1037.30   31.60
  -9   3   9 1071.69   31.10
   9   3  -9  997.90   27.30
  -7  -3   9 1008.60   28.30
   7  -3  -9  978.50   27.00
  -7  -3   9  973.70   28.90
   7  -3  -9  965.60   28.30
  -7   3   9  990.80   28.30
  -7   3   9  981.10   27.80
   7   3  -9  975.40   28.90
   7   3  -9  969.80   26.20
  -7   3   9 1018.40   29.50
  -5  -3   9  275.77   12.90
  -5  -3   9  287.97   12.40
   5  -3  -9  276.67   11.40
   5  -3  -9  253.97   12.00
   5  -3  -9  282.17   12.50
   5   3  -9  280.77   11.20
  -5   3   9  282.87   13.00
   5   3  -9  275.57   15.40
  -5   3   9  271.27   12.40
  -5   3   9  274.57   12.10
   3  -3  -9  428.56   14.30
   3  -3  -9  432.86   14.90
  -3  -3   9  446.06   15.60
   3  -3  -9  443.66   15.30
  -3  -3   9  433.06   16.00
   3   3  -9  454.75   14.50
   3   3  -9  431.66   18.00
  -3   3   9  419.76   15.10
  -3   3   9  416.56   15.30
   3   3  -9  393.06   15.40
  -3   3   9  419.36   13.90
   1  -3  -9 1377.76   34.20
   1  -3  -9 1373.46   33.70
  -1  -3   9 1367.56   34.50
  -1  -3   9 1315.47   34.70
   1  -3  -9 1354.86   33.10
  -1   3   9 1284.17   33.70
  -1   3   9 1303.87   33.40
   1   3  -9 1290.17   34.60
  -1   3   9 1335.37   34.00
  -1   3   9 1368.56   34.80
   1   3  -9 1337.27   33.40
   1  -3   9  494.15   16.70
   1  -3   9  475.85   16.90
  -1  -3  -9  485.75   15.30
  -1  -3  -9  496.15   16.30
   1  -3   9  509.75   18.80
  -1  -3  -9  521.55   16.10
   1   3   9  492.65   17.00
  -1   3  -9  527.75   19.30
   1   3   9  488.75   14.00
   1   3   9  513.45   16.30
  -1   3  -9  485.85   17.10
   1   3   9  487.35   15.80
  -1   3  -9  518.45   16.20
  -3  -3  -9   43.30    5.60
   3  -3   9   39.60    6.00
   3  -3   9   60.19    6.90
   3  -3   9   38.80    5.20
  -3  -3  -9   48.30    5.40
  -3  -3  -9   54.99    6.10
   3   3   9   47.90    6.30
  -3   3  -9   61.09    7.20
  -3   3  -9   63.09    6.00
   3   3   9   44.80    5.50
  -3   3  -9   53.59    7.20
   3   3   9   46.70    5.80
   5  -3   9  713.43   21.60
   5  -3   9  688.43   21.80
  -5  -3  -9  693.23   20.10
   5  -3   9  700.33   24.40
  -5  -3  -9  705.03   19.60
  -5  -3  -9  700.13   20.60
  -5   3  -9  682.33   20.60
  -5   3  -9  707.43   22.10
   5   3   9  678.63   21.00
   7  -3   9  657.43   24.30
  -7  -3  -9  641.44   19.80
  -7  -3  -9  664.53   19.50
   7  -3   9  661.53   21.10
  -7  -3  -9  607.54   18.50
   7  -3   9  636.64   21.30
  -7   3  -9  654.03   20.00
  -7   3  -9  623.64   20.00
   7   3   9  650.43   20.00
  -7   3  -9  649.74   21.70
   7   3   9  649.43   19.50
  -9  -3  -9  225.08   10.40
   9  -3   9  191.18   19.10
   9  -3   9  239.68   13.10
   9  -3   9  226.38   13.40
  -9   3  -9  222.78   11.50
   9   3   9  241.08   11.30
  -9   3  -9  231.98   15.50
  11  -3   9    9.30    4.50
  11  -3   9    4.90    6.50
  11  -3   9   13.30    8.10
  11  -3   9   -2.70    6.50
  11   3   9    7.40    4.70
 -11   3  -9    2.50    5.00
  13  -3   9  447.06   21.30
 -13  -3  -9  426.66   17.20
  13  -3   9  399.96   24.30
 -13   3  -9  427.56   18.40
 -15  -3  -9  470.95   20.20
 -15   3  -9  458.55   21.30
  16  -4  -9  467.25   22.20
  16  -4  -9  480.45   25.50
 -16  -4   9  440.36   23.10
 -16  -4   9  477.45   25.20
 -16  -4   9  524.05   24.80
 -16   4   9  460.85   25.30
 -16   4   9  490.35   26.20
 -16   4   9  510.75   30.50
  16   4  -9  465.35   26.20
 -14  -4   9  310.77   17.90
 -14  -4   9  272.57   17.60
  14  -4  -9  285.17   16.90
  14  -4  -9  324.47   17.80
 -14  -4   9  302.27   19.30
 -14   4   9  303.67   19.30
 -14   4   9  276.87   20.50
 -14   4   9  308.27   15.80
 -14   4   9  278.47   21.80
  14   4  -9  290.37   19.90
  12  -4  -9  658.23   22.90
  12  -4  -9  677.63   23.10
 -12  -4   9  684.13   25.20
 -12  -4   9  686.43   23.80
  12   4  -9  660.43   20.20
 -12   4   9  660.43   27.00
  12   4  -9  602.74   24.30
 -12   4   9  665.03   25.20
 -12   4   9  653.83   26.90
 -12   4   9  699.53   25.80
 -10  -4   9  210.48   13.30
  10  -4  -9  206.48   11.70
  10  -4  -9  221.88   12.80
 -10  -4   9  218.28   12.50
  10   4  -9  206.68   15.00
 -10   4   9  203.58   15.10
  10   4  -9  195.38   10.40
 -10   4   9  216.18   12.10
 -10   4   9  229.98   14.00
 -10   4   9  224.98   13.80
  -8  -4   9  372.66   15.50
  -8  -4   9  389.96   16.50
   8  -4  -9  368.66   14.80
   8  -4  -9  397.36   16.50
  -8   4   9  384.46   16.60
   8   4  -9  386.56   16.70
  -8   4   9  369.56   16.20
  -8   4   9  379.36   15.40
   8   4  -9  396.16   13.80
  -8   4   9  418.16   17.60
   6  -4  -9 1225.78   33.60
   6  -4  -9 1330.27   34.60
   6  -4  -9 1291.07   33.10
  -6  -4   9 1296.67   34.90
  -6  -4   9 1282.07   34.00
  -6   4   9 1316.47   34.30
  -6   4   9 1280.27   34.20
  -6   4   9 1298.57   35.20
   6   4  -9 1272.57   35.20
   6   4  -9 1221.08   32.00
   4  -4  -9 3051.09   69.09
   4  -4  -9 3005.70   69.69
   4  -4  -9 3195.48   70.69
  -4  -4   9 3029.70   71.19
  -4  -4   9 3053.49   70.39
   4   4  -9 3242.28   76.09
   4   4  -9 3024.70   68.69
  -4   4   9 3014.00   70.79
  -4   4   9 3062.59   69.99
   2  -4  -9   49.70    5.80
  -2  -4   9   36.20    5.00
  -2  -4   9   48.50    6.70
   2  -4  -9   50.29    6.10
  -2  -4   9   53.29    7.30
   2  -4  -9   51.09    5.40
   2   4  -9   45.40    5.50
  -2   4   9   54.59    5.80
  -2   4   9   46.20    6.40
  -2   4   9   57.39    6.40
  -2   4   9   52.39    6.70
   0  -4  -9 1625.24   40.10
   0  -4  -9 1662.73   39.50
   0  -4   9 1616.74   41.00
   0  -4   9 1660.43   43.00
   0  -4   9 1595.34   40.40
   0  -4  -9 1625.34   38.90
   0   4   9 1638.74   39.40
   0   4  -9 1600.74   41.00
   0   4   9 1651.33   36.90
   0   4   9 1630.64   39.70
   0   4   9 1610.54   40.90
   0   4  -9 1619.84   39.60
   2  -4   9 2144.69   52.09
  -2  -4  -9 2214.78   50.39
  -2  -4  -9 2171.98   49.80
   2  -4   9 2162.68   54.39
   2  -4   9 2254.27   51.99
  -2  -4  -9 2170.28   50.89
   2   4   9 2130.49   51.89
  -2   4  -9 2155.58   50.79
  -2   4  -9 2094.09   51.99
  -4  -4  -9  505.45   15.40
  -4  -4  -9  524.85   15.90
  -4  -4  -9  502.35   16.20
   4  -4   9  493.95   19.70
   4  -4   9  505.15   17.50
   4  -4   9  500.75   17.70
  -4   4  -9  468.45   16.20
   4   4   9  497.45   15.60
   4   4   9  470.85   17.00
  -4   4  -9  483.55   17.80
   4   4   9  503.45   15.90
   6  -4   9   71.69    8.10
   6  -4   9   79.59    8.80
   6  -4   9   64.39    8.60
  -6  -4  -9   64.99    6.50
  -6  -4  -9   85.29    6.50
  -6  -4  -9   78.89    6.80
   6   4   9   60.79    8.60
   6   4   9   64.69    7.40
  -6   4  -9   66.69    6.90
   6   4   9   78.79    7.70
  -6   4  -9   68.49    7.90
   6   4   9   77.09    7.10
  -6   4  -9   75.59    8.30
  -8  -4  -9  293.07   12.20
   8  -4   9  315.47   14.50
  -8  -4  -9  274.27   13.80
   8  -4   9  307.17   15.10
  -8  -4  -9  299.07   11.60
   8  -4   9  297.07   18.70
  -8   4  -9  320.27   15.80
  -8   4  -9  287.77   13.10
   8   4   9  316.27   12.50
  -8   4  -9  310.27   13.70
   8   4   9  316.67   13.20
  10  -4   9  992.60   33.80
  10  -4   9 1052.09   30.90
  10  -4   9 1022.50   31.50
 -10  -4  -9 1005.10   27.10
 -10   4  -9 1024.80   29.40
  10   4   9  999.30   27.40
 -12  -4  -9  673.73   21.30
  12  -4   9  700.23   29.10
  12  -4   9  663.33   28.70
 -12   4  -9  693.23   23.70
 -14  -4  -9  150.48   13.10
  14  -4   9  183.08   18.70
  14  -4   9  167.48   22.00
 -14   4  -9  155.18   14.90
 -15  -5   9  283.17   19.20
 -15  -5   9  218.98   17.30
  15  -5  -9  272.07   17.80
 -15  -5   9  236.58   19.30
  15   5  -9  254.37   20.90
 -15   5   9  294.87   22.50
 -15   5   9  269.67   16.50
 -15   5   9  284.37   25.20
 -15   5   9  299.27   20.50
  13  -5  -9   15.50    9.30
 -13  -5   9    3.10    7.20
 -13  -5   9   11.60    7.30
 -13  -5   9    4.60    7.30
  13  -5  -9   10.60    7.20
  13   5  -9   11.30    8.50
 -13   5   9   16.70   10.20
 -13   5   9   32.10    8.80
 -13   5   9   10.90    8.60
 -13   5   9   27.50    6.90
  11  -5  -9 1466.05   38.90
 -11  -5   9 1432.96   39.50
 -11  -5   9 1477.05   40.90
  11  -5  -9 1461.35   39.70
 -11   5   9 1336.17   44.40
 -11   5   9 1428.56   41.40
 -11   5   9 1452.05   42.60
  11   5  -9 1440.16   35.20
  11   5  -9 1467.55   40.40
   9  -5  -9 1724.53   44.00
  -9  -5   9 1789.72   46.10
   9  -5  -9 1706.03   46.00
   9  -5  -9 1740.33   45.40
  -9  -5   9 1790.92   45.20
   9   5  -9 1792.42   45.10
  -9   5   9 1780.32   46.10
  -9   5   9 1617.74   49.50
  -9   5   9 1775.92   47.30
  -9   5   9 1759.52   44.90
   9   5  -9 1775.42   41.60
   7  -5  -9  138.89    9.10
  -7  -5   9  143.89   10.50
  -7  -5   9  130.89    9.50
   7  -5  -9  129.69   10.30
  -7   5   9  135.89    9.60
  -7   5   9  126.39   10.50
   7   5  -9  147.79    8.40
  -7   5   9  141.09   11.60
   7   5  -9  120.69   12.10
  -7   5   9  145.79   10.80
   5  -5  -9    3.80    3.20
   5  -5  -9   -5.50    3.80
  -5  -5   9    7.60    3.80
  -5  -5   9    4.50    3.70
   5  -5  -9   -2.20    3.70
  -5   5   9    2.20    4.20
  -5   5   9   -0.80    4.00
   5   5  -9    2.30    3.20
  -5   5   9    5.10    4.30
   3  -5  -9  989.50   27.30
  -3  -5   9 1003.00   28.50
  -3  -5   9  962.90   27.50
  -3  -5   9  956.40   28.70
   3  -5  -9  978.00   26.20
   3  -5  -9 1002.00   27.00
  -3   5   9  950.50   28.00
   3   5  -9 1001.20   26.20
  -3   5   9 1041.50   27.90
  -3   5   9  974.50   26.90
  -3   5   9  994.70   24.90
   1  -5  -9 3282.77   73.29
   1  -5  -9 3414.36   74.59
  -1  -5   9 3245.28   75.69
   1  -5  -9 3378.66   73.89
  -1  -5   9 3368.06   75.19
  -1  -5   9 3150.48   76.79
  -1   5   9 3158.28   75.49
  -1   5   9 3341.77   70.69
  -1   5   9 3308.17   73.79
  -1   5   9 3317.77   74.19
   1   5  -9 3383.96   73.99
  -1  -5  -9  430.26   15.40
   1  -5   9  411.06   16.00
   1  -5   9  414.46   17.60
   1  -5   9  413.56   15.40
  -1  -5  -9  418.86   14.60
  -1  -5  -9  427.36   13.80
   1   5   9  427.56   14.30
  -1   5  -9  448.86   15.10
   1   5   9  427.16   16.10
   1   5   9  425.76   16.10
  -3  -5  -9   24.90    4.10
   3  -5   9   28.60    5.10
  -3  -5  -9   27.40    4.10
   3  -5   9   31.80    5.50
  -3  -5  -9   32.70    4.30
   3  -5   9   36.00    6.70
   3   5   9   29.60    4.40
   3   5   9   38.80    6.10
   3   5   9   30.20    4.60
  -3   5  -9   27.60    4.60
  -5  -5  -9 1305.47   33.10
   5  -5   9 1331.47   35.70
  -5  -5  -9 1316.07   32.50
   5  -5   9 1285.97   35.00
   5  -5   9 1292.27   38.30
  -5  -5  -9 1366.06   32.40
   5   5   9 1339.07   35.00
  -5   5  -9 1324.47   31.60
   5   5   9 1302.97   32.40
   5   5   9 1335.47   32.30
  -5   5  -9 1285.87   34.00
   7  -5   9 2287.97   56.09
   7  -5   9 2284.37   59.89
  -7  -5  -9 2317.87   52.59
  -7  -5  -9 2339.57   53.59
   7  -5   9 2366.06   56.99
  -7  -5  -9 2286.87   52.49
   7   5   9 2265.27   53.39
   7   5   9 2299.47   54.89
  -7   5  -9 2278.67   52.29
   7   5   9 2329.27   52.59
  -7   5  -9 2355.16   55.29
   9  -5   9  138.29   12.30
   9  -5   9  154.48   13.30
   9  -5   9  122.49   13.90
  -9  -5  -9  142.99    8.70
  -9   5  -9  159.28   10.90
   9   5   9  148.89   10.20
 -11  -5  -9  192.68   10.90
  11  -5   9  164.28   17.60
  11  -5   9  186.58   14.90
  11  -5   9  177.88   16.30
 -11   5  -9  213.48   13.30
  13  -5   9  182.78   21.30
 -13  -5  -9  176.98   12.40
  13  -5   9  183.88   17.60
 -13   5  -9  201.78   14.70
  14  -6  -9  653.13   27.10
 -14  -6   9  691.53   25.70
 -14  -6   9  692.23   26.50
  14  -6  -9  661.43   25.70
 -14  -6   9  677.93   27.60
  14   6  -9  690.03   28.90
 -14   6   9  668.13   24.70
 -14   6   9  657.03   28.40
 -14   6   9  662.03   29.10
  12  -6  -9  915.51   30.00
 -12  -6   9  875.61   28.50
  12  -6  -9  901.01   28.40
 -12  -6   9  904.31   30.20
 -12   6   9  859.61   32.60
 -12   6   9  894.61   31.30
  12   6  -9  864.51   30.10
 -12   6   9  862.91   31.20
 -12   6   9  848.92   27.90
  10  -6  -9   38.00    6.50
 -10  -6   9   37.80    6.90
  10  -6  -9   31.70    7.40
 -10  -6   9   42.70    7.80
 -10   6   9   39.20    7.50
 -10   6   9   28.60    9.00
 -10   6   9   29.40    7.80
 -10   6   9   37.60    7.50
  10   6  -9   41.80    5.70
   8  -6  -9  562.04   19.50
   8  -6  -9  504.25   23.20
   8  -6  -9  581.74   21.50
  -8  -6   9  599.24   20.40
  -8  -6   9  608.24   21.40
   8   6  -9  564.34   21.10
  -8   6   9  605.24   21.50
  -8   6   9  613.74   23.00
  -8   6   9  584.64   21.90
   8   6  -9  609.64   17.60
  -8   6   9  530.95   23.20
   8   6  -9  590.24   20.10
  -6  -6   9  773.92   26.80
  -6  -6   9  866.11   26.10
   6  -6  -9  870.21   24.40
   6  -6  -9  817.32   24.80
   6  -6  -9  827.02   25.30
  -6   6   9  865.51   26.10
  -6   6   9  848.92   25.50
   6   6  -9  851.51   22.60
   6   6  -9  846.12   24.00
  -6   6   9  817.52   25.60
  -6   6   9  682.53   32.70
  -4  -6   9  684.63   22.10
   4  -6  -9  670.63   20.00
  -4  -6   9  683.63   22.70
   4  -6  -9  676.93   20.70
  -4  -6   9  676.33   21.40
   4  -6  -9  668.73   21.50
  -4   6   9  681.03   21.70
  -4   6   9  683.83   21.20
  -4   6   9  648.04   22.10
  -4   6   9  682.53   18.80
   4   6  -9  663.63   19.50
   2  -6  -9  233.48   10.70
   2  -6  -9  223.48   10.10
   2  -6  -9  206.48   10.30
  -2  -6   9  216.78   11.10
  -2  -6   9  229.98   11.80
  -2  -6   9  226.08   12.50
  -2   6   9  210.78   10.70
  -2   6   9  206.58   11.60
  -2   6   9  227.38    8.40
  -2   6   9  218.78   11.00
   2   6  -9  224.98   10.30
   0  -6   9  233.58   11.60
   0  -6  -9  242.98   10.50
   0  -6  -9  220.78   14.20
   0  -6   9  259.97   13.70
   0  -6  -9  239.68   10.10
   0  -6   9  241.08   12.10
   0   6   9  235.68   12.30
   0   6   9  243.08   10.60
   0   6   9  247.98   11.10
   0   6  -9  239.18   11.00
  -2  -6  -9 1761.12   42.40
  -2  -6  -9 1735.43   41.30
   2  -6   9 1757.42   44.10
   2  -6   9 1772.22   47.20
  -2  -6  -9 1717.83   41.60
   2  -6   9 1785.32   44.90
  -2   6  -9 1751.32   43.00
   2   6   9 1762.92   41.50
   2   6   9 1793.62   44.90
   2   6   9 1788.42   41.70
   4  -6   9  762.12   24.20
   4  -6   9  735.33   23.50
  -4  -6  -9  763.62   20.90
  -4  -6  -9  761.62   21.50
  -4  -6  -9  780.72   21.00
   4  -6   9  748.33   26.50
  -4   6  -9  794.62   19.30
   4   6   9  786.82   20.80
  -4   6  -9  746.33   22.60
   4   6   9  780.72   24.00
   4   6   9  706.63   22.00
  -6  -6  -9  186.68    9.10
   6  -6   9  209.18   12.20
   6  -6   9  196.28   14.10
   6  -6   9  187.08   12.30
  -6  -6  -9  195.18    8.90
  -6  -6  -9  194.48    9.10
   6   6   9  178.18   13.50
  -6   6  -9  188.58   10.70
   6   6   9  189.28   11.30
   8  -6   9  368.96   20.00
   8  -6   9  380.36   17.70
  -8  -6  -9  379.06   13.10
  -8  -6  -9  353.66   13.20
   8  -6   9  340.17   18.60
  -8   6  -9  379.36   15.70
   8   6   9  366.46   15.40
  10  -6   9 1472.55   41.90
  10  -6   9 1521.35   46.00
 -10  -6  -9 1446.46   36.70
  10  -6   9 1500.35   42.70
 -10   6  -9 1593.64   40.80
  12  -6   9  451.45   22.10
  12  -6   9  388.06   24.60
 -12  -6  -9  405.16   19.50
 -12   6  -9  425.46   19.30
 -13  -7   9   52.69    8.80
  13  -7  -9   43.40    8.90
 -13  -7   9   58.59   10.10
  13  -7  -9   79.19   12.20
 -13  -7   9   55.49   10.00
 -13   7   9   61.99    9.90
  13   7  -9   54.99   11.40
 -13   7   9   54.09   11.90
 -13   7   9   77.89   12.50
 -11  -7   9 1003.90   31.80
 -11  -7   9 1013.50   30.50
  11  -7  -9  983.10   32.50
  11  -7  -9 1001.70   30.60
  11   7  -9 1010.10   31.70
 -11   7   9  991.20   30.70
 -11   7   9 1004.70   33.30
 -11   7   9  900.51   38.70
   9  -7  -9  836.82   25.90
  -9  -7   9  834.22   26.30
  -9  -7   9  844.82   27.50
   9  -7  -9  825.22   28.10
  -9   7   9  819.62   28.90
   9   7  -9  849.91   21.90
  -9   7   9  836.92   27.90
  -9   7   9  845.52   28.30
  -9   7   9  818.02   26.90
   9   7  -9  836.12   26.40
  -7  -7   9  242.58   12.60
  -7  -7   9  252.37   13.50
   7  -7  -9  249.78   14.30
   7  -7  -9  243.88   12.10
   7  -7  -9  196.48   15.40
   7   7  -9  228.18   12.20
   7   7  -9  225.88   10.10
  -7   7   9  233.38   15.50
  -7   7   9  242.58   13.90
  -7   7   9  225.48   13.10
  -7   7   9  239.68   13.90
   5  -7  -9  109.69    9.10
  -5  -7   9  111.29    9.30
   5  -7  -9  102.09    9.10
   5  -7  -9  115.39    8.40
  -5  -7   9  108.09   10.20
  -5  -7   9  109.49    9.80
   5   7  -9  105.49    7.80
  -5   7   9  117.69    9.00
   5   7  -9  115.99    8.20
  -5   7   9  105.99    9.50
  -5   7   9  105.19   10.80
  -5   7   9  119.79    9.90
  -3  -7   9  418.06   16.60
   3  -7  -9  398.76   15.10
  -3  -7   9  414.16   17.50
   3  -7  -9  410.56   15.40
  -3  -7   9  417.66   16.00
   3  -7  -9  407.96   14.60
   3   7  -9  428.16   14.40
   3   7  -9  413.66   13.40
  -3   7   9  404.46   15.50
  -3   7   9  405.66   16.80
  -3   7   9  412.06   12.20
  -3   7   9  428.46   15.90
   1  -7  -9  717.83   21.30
   1  -7  -9  709.43   20.80
  -1  -7   9  716.93   22.30
   1  -7  -9  708.53   20.40
  -1  -7   9  694.53   22.90
  -1  -7   9  743.63   24.70
  -1   7   9  678.13   23.20
   1   7  -9  740.33   21.00
  -1   7   9  712.83   21.40
  -1   7   9  726.13   21.40
  -1  -7  -9 1147.59   29.00
   1  -7   9 1133.29   31.60
  -1  -7  -9 1150.18   29.90
   1  -7   9 1165.48   32.40
  -1  -7  -9 1158.88   29.30
   1  -7   9 1096.49   33.90
   1   7   9 1144.79   29.50
   1   7   9 1133.79   29.00
  -1   7  -9 1154.08   30.40
   1   7   9 1191.68   33.00
   3  -7   9    8.20    4.40
  -3  -7  -9    8.10    3.40
   3  -7   9   -0.20    7.10
   3  -7   9    9.50    4.60
  -3  -7  -9    7.50    3.40
  -3  -7  -9    6.60    3.30
   3   7   9    9.10    4.40
   3   7   9    8.30    3.90
  -3   7  -9    6.90    2.60
   3   7   9    9.00    5.20
  -3   7  -9    4.50    4.20
  -5  -7  -9  842.22   22.90
  -5  -7  -9  840.12   21.90
   5  -7   9  900.81   27.30
  -5  -7  -9  845.82   22.60
   5  -7   9  737.13   34.20
   5  -7   9  857.11   29.50
   5   7   9  878.61   26.40
  -5   7  -9  801.92   27.20
   7  -7   9 1373.46   39.30
  -7  -7  -9 1403.06   34.50
   7  -7   9 1425.46   38.70
   7  -7   9 1422.56   42.50
  -7  -7  -9 1391.56   34.00
  -7   7  -9 1395.76   37.10
   7   7   9 1391.26   37.50
  -9  -7  -9  116.29    8.50
   9  -7   9  105.29   12.30
   9  -7   9  116.79   13.60
   9  -7   9   83.59   11.60
  -9   7  -9   91.29   10.90
 -11  -7  -9    3.40    5.10
  11  -7   9    8.00    9.20
  11  -7   9    0.80    7.60
  11  -7   9   -0.30    9.40
 -11   7  -9    4.30    7.00
  13  -7   9  497.55   29.80
  13  -7   9  580.94   27.30
 -13   7  -9  508.15   22.90
 -12  -8   9   39.80    8.30
  12  -8  -9   64.39   10.00
 -12  -8   9   54.09    9.50
  12  -8  -9   39.80   10.90
 -12   8   9   72.29   10.30
 -12   8   9   66.49   12.20
 -12   8   9   83.29   13.10
  12   8  -9   39.90   10.60
  10  -8  -9   17.00    7.90
 -10  -8   9    5.70    6.10
  10  -8  -9   11.80    6.60
 -10  -8   9   12.80    6.30
 -10   8   9   29.60    8.70
  10   8  -9   12.60    7.30
 -10   8   9   14.40    9.50
 -10   8   9    5.60    6.80
   8  -8  -9   21.60    7.40
   8  -8  -9   21.50    5.80
  -8  -8   9   22.80    5.60
  -8  -8   9   20.30    5.80
  -8   8   9    9.20    6.80
   8   8  -9   13.40    5.90
   8   8  -9   18.90    4.30
  -8   8   9   20.40    7.10
  -8   8   9   18.70    8.10
  -6  -8   9 1059.99   30.90
  -6  -8   9 1052.29   31.10
   6  -8  -9 1053.69   32.60
   6  -8  -9 1055.29   29.20
  -6  -8   9 1027.50   29.80
  -6   8   9 1018.00   30.60
   6   8  -9 1020.60   26.00
  -6   8   9  968.30   30.90
   6   8  -9 1032.60   28.10
  -6   8   9 1059.89   30.70
  -4  -8   9  861.31   27.40
  -4  -8   9  853.01   25.60
   4  -8  -9  824.12   31.00
  -4  -8   9  857.11   26.50
   4  -8  -9  848.12   24.20
   4   8  -9  829.92   22.80
  -4   8   9  834.72   25.50
  -4   8   9  836.22   25.30
  -4   8   9  817.42   26.90
   4   8  -9  833.02   22.50
  -2  -8   9    9.20    4.30
  -2  -8   9    1.90    5.10
  -2  -8   9    0.30    4.10
   2  -8  -9    4.70    3.60
   2  -8  -9    1.80    3.60
   2  -8  -9    3.40    4.20
  -2   8   9   -0.20    5.00
   2   8  -9   11.50    4.40
  -2   8   9    8.50    4.40
   2   8  -9    7.40    3.10
  -2   8   9    2.20    5.00
   0  -8   9  399.76   16.00
   0  -8  -9  382.16   13.70
   0  -8  -9  382.76   14.10
   0  -8   9  387.16   17.70
   0  -8  -9  397.26   13.70
   0  -8   9  410.06   16.80
   0   8  -9  420.06   14.90
   0   8   9  377.96   14.30
   0   8   9  387.46   17.20
   0   8  -9  397.56   10.40
   0   8   9  402.76   14.20
   0   8   9  395.76   15.60
  -2  -8  -9  453.95   14.40
   2  -8   9  441.06   17.30
  -2  -8  -9  444.96   14.70
  -2  -8  -9  468.65   15.20
   2  -8   9  423.56   19.60
   2  -8   9  474.35   18.30
   2   8   9  426.16   21.00
  -2   8  -9  474.65   16.60
   4  -8   9  265.57   16.20
  -4  -8  -9  229.18   10.30
   4  -8   9  259.07   13.60
   4  -8   9  268.97   14.30
   4   8   9  209.38   15.30
  -6  -8  -9   10.20    4.00
   6  -8   9   -0.80    5.40
   6  -8   9   -0.50    5.20
   6  -8   9   -4.50    6.60
  -6  -8  -9    0.60    4.10
   6   8   9    1.70    5.70
  -6   8  -9   -7.90    4.40
  -8  -8  -9    1.80    4.40
   8  -8   9    4.80    6.60
   8  -8   9   10.00    8.20
  -8   8  -9    3.50    5.70
  10  -8   9  262.67   17.80
  10  -8   9  238.38   21.20
  10  -8   9  276.97   19.30
 -10   8  -9  216.58   15.50
  12  -8   9  994.00   39.00
  12  -8   9  954.40   34.50
 -12   8  -9  971.60   31.90
 -11  -9   9   30.70    7.90
  11  -9  -9   16.20    7.80
 -11  -9   9   32.20    7.60
  11  -9  -9   17.20   10.10
 -11   9   9    6.10   10.40
  11   9  -9   23.80    9.70
 -11   9   9   18.50    8.90
 -11   9   9    4.50    9.70
  -9  -9   9  172.68   13.20
   9  -9  -9  152.88   12.40
  -9  -9   9  183.38   13.70
   9  -9  -9  166.48   16.50
   9   9  -9  151.38   13.70
  -9   9   9  176.28   15.80
  -9   9   9  173.48   17.00
  -9   9   9  191.08   14.30
  -7  -9   9  191.88   12.50
   7  -9  -9  198.28   15.40
   7  -9  -9  179.98   12.00
  -7  -9   9  211.88   13.70
  -7  -9   9  181.78   12.90
  -7   9   9  213.38   15.80
  -7   9   9  187.28   14.10
   7   9  -9  179.68   12.20
  -7   9   9  172.58   13.60
  -5  -9   9    2.90    5.80
  -5  -9   9    2.40    5.00
   5  -9  -9    0.80    6.40
   5  -9  -9   -2.60    4.20
  -5  -9   9    5.00    5.10
  -5   9   9   -0.60    5.30
   5   9  -9   -0.20    4.10
  -5   9   9   -5.30    5.60
  -5   9   9    6.40    6.50
   5   9  -9    6.80    4.80
  -3  -9   9  205.78   12.80
  -3  -9   9  233.58   12.90
   3  -9  -9  220.98   11.10
  -3  -9   9  222.78   14.60
   3   9  -9  223.78    9.30
   3   9  -9  230.48   10.70
  -3   9   9  226.58   12.50
  -3   9   9  216.78   13.30
  -3   9   9  236.58   14.40
  -1  -9   9  137.29   19.10
  -1  -9   9  103.39    9.60
   1  -9  -9   93.59    7.90
  -1  -9   9  105.29   10.10
  -1   9   9   94.69    8.90
  -1   9   9  131.89   11.60
   1   9  -9  112.49    8.80
  -1   9   9  119.19   12.10
  -1  -9  -9  176.08    9.50
   1  -9   9  179.48   13.80
   1  -9   9  200.28   12.10
   1  -9   9  186.38   12.50
  -1  -9  -9  175.08    9.20
  -1   9  -9  183.48   10.80
   1   9   9  177.38   13.00
   1   9   9  185.78   10.20
   3  -9   9   19.80    7.60
  -3  -9  -9   18.50    4.40
   3  -9   9   25.90    6.10
   3  -9   9   15.30    5.50
  -3  -9  -9   15.50    4.70
   3   9   9   29.90    7.00
   3   9   9   20.10    4.60
  -3   9  -9   17.70    5.70
  -5  -9  -9  249.88   10.90
   5  -9   9  234.28   17.60
  -5  -9  -9  274.57   10.90
   5  -9   9  264.17   15.60
   5  -9   9  242.38   14.70
   5   9   9  249.48   15.30
  -5   9  -9  273.17   13.90
   7  -9   9   -2.10    6.10
   7  -9   9   15.20    7.30
  -7  -9  -9    3.10    4.80
  -7  -9  -9    0.80    4.30
   7  -9   9    7.90    8.10
  -7   9  -9   12.40    6.60
   9  -9   9  168.78   17.70
   9  -9   9  148.39   18.20
   9  -9   9  154.48   15.60
  -9   9  -9  154.98   13.80
  11  -9   9    2.10   10.80
  11  -9   9   18.80   10.40
  11  -9   9   35.00   13.60
 -11   9  -9   18.70    9.30
  10 -10  -9   18.70    8.10
  10 -10  -9   23.50   10.20
 -10 -10   9   22.20    7.80
 -10 -10   9   16.30    7.40
  10  10  -9   31.50   10.00
 -10  10   9   17.70   10.40
 -10  10   9   29.80    9.80
   8 -10  -9    1.60    8.40
   8 -10  -9   15.50    6.60
  -8 -10   9   -5.40    5.90
  -8 -10   9    1.70    7.40
  -8 -10   9   -2.70    6.00
   8  10  -9   -0.10    6.90
  -8  10   9   -4.40    7.60
  -8  10   9   -1.00    8.40
  -6 -10   9   59.89    8.80
  -6 -10   9   63.39    9.10
   6 -10  -9   56.39    7.60
   6 -10  -9   55.49   10.60
  -6 -10   9   58.09    8.10
  -6  10   9   38.90    8.00
   6  10  -9   58.49    7.50
  -4 -10   9   76.79    9.20
  -4 -10   9   60.99    7.90
   4 -10  -9   74.39    7.70
   4 -10  -9   56.59    9.50
  -4  10   9   81.79   10.50
   4  10  -9   66.99    7.70
  -4  10   9   66.69    9.60
   2 -10  -9   12.70    7.00
  -2 -10   9    1.80    6.10
   2 -10  -9   21.50    5.10
  -2 -10   9    7.80    5.40
  -2 -10   9   15.80    5.80
   2  10  -9    9.30    4.90
  -2  10   9   21.20    6.00
  -2  10   9    2.50    6.60
   0 -10   9   82.99   10.80
   0 -10  -9   79.49    8.00
   0 -10   9   91.59   10.70
   0 -10   9   73.59    8.80
   0  10   9   70.89    8.90
   0  10  -9   96.49    9.40
   0  10   9   96.49   11.80
   2 -10   9    1.40    5.40
  -2 -10  -9   -1.90    4.00
   2 -10   9  -12.10    6.70
   2 -10   9    3.90    5.30
   2  10   9    4.20    6.50
  -2  10  -9   18.90    6.20
   4 -10   9  -11.50    5.50
   4 -10   9    0.80    6.00
  -4 -10  -9   -1.50    4.20
   4 -10   9  -10.70    7.00
  -4  10  -9   18.50    6.50
   6 -10   9   26.60    7.60
   6 -10   9   13.20    7.50
  -6 -10  -9   27.50    5.10
   6 -10   9   13.50    9.20
  -6  10  -9   32.50    7.40
   8 -10   9    7.20   10.40
   8 -10   9    1.00    8.50
   8 -10   9    2.50    8.00
  -8  10  -9    2.90    7.90
  10 -10   9   31.10   11.10
  10 -10   9   35.60   11.60
  10 -10   9   27.40   12.50
 -10  10  -9   37.70    9.90
  -9 -11   9    4.80    7.20
  -9 -11   9   -1.10    7.30
   9 -11  -9   16.10    8.00
   9 -11  -9   14.50   10.00
  -9  11   9  -10.20    9.90
  -7 -11   9  251.97   16.00
   7 -11  -9  258.87   20.00
   7 -11  -9  246.98   14.90
  -7 -11   9  269.37   16.90
  -7 -11   9  239.18   15.00
  -7  11   9  245.18   18.10
  -7  11   9  255.37   18.10
  -5 -11   9   23.20    6.90
  -5 -11   9    2.90    7.60
  -5 -11   9    3.00    6.00
   5 -11  -9    5.50    6.10
   5 -11  -9    8.90    7.90
  -5  11   9   13.20    8.00
  -5  11   9   17.00    7.50
  -3 -11   9  171.98   15.10
  -3 -11   9  150.88   12.80
   3 -11  -9  153.08   15.50
  -3 -11   9  181.78   13.30
   3 -11  -9  139.79   10.90
  -3  11   9  155.28   13.00
  -3  11   9  152.58   15.20
  -1 -11   9   -3.50    5.70
   1 -11  -9   -4.40    6.60
  -1 -11   9   -8.20    6.20
  -1 -11   9    2.20    5.60
   1 -11  -9    6.00    4.80
   1  11  -9    4.90    5.30
  -1  11   9    6.70    6.00
  -1  11   9   13.20    8.00
   1 -11   9    2.90    7.80
  -1 -11  -9    0.40    4.60
   1 -11   9   -0.20    6.10
   1 -11   9    1.30    5.90
  -1 -11  -9    9.30    6.60
  -1  11  -9   -2.20    5.80
  -3 -11  -9   82.09    7.50
   3 -11   9   92.59   12.70
   3 -11   9   80.19   12.90
   3 -11   9   73.89    9.60
  -3 -11  -9   79.49   10.60
  -5 -11  -9    5.70    7.50
   5 -11   9   10.90    8.00
   5 -11   9    1.70    9.30
   5 -11   9   11.90    7.20
  -5  11  -9   13.90    7.70
  -7 -11  -9  113.89   12.90
   7 -11   9  134.99   15.30
   7 -11   9  122.89   16.50
   7 -11   9  102.39   13.00
  -7  11  -9   98.29   11.40
  -8 -12   9   28.70    8.30
  -8 -12   9   14.70    8.10
   8 -12  -9   36.00    9.00
   8 -12  -9   25.10   11.80
  -8  12   9   22.90   11.40
   6 -12  -9  311.27   22.20
   6 -12  -9  339.07   17.00
  -6 -12   9  279.37   17.10
  -6 -12   9  270.87   19.60
  -6 -12   9  303.07   16.70
  -6  12   9  281.97   19.60
   4 -12  -9  116.49   16.50
  -4 -12   9  122.99   12.90
   4 -12  -9  127.79   12.20
  -4 -12   9  128.09   15.80
  -4 -12   9  139.09   13.50
  -4  12   9  131.69   14.40
   2 -12  -9    4.30    5.70
  -2 -12   9    1.50    8.50
  -2 -12   9    6.90    6.90
  -2 -12   9   -3.60    6.50
   2 -12  -9    2.20    7.70
   0 -12   9   20.80    7.20
   0 -12   9   25.40    7.90
   0 -12  -9    3.50    5.40
   0 -12  -9   15.80    8.10
   0 -12   9   20.20    9.10
   2 -12   9  428.36   21.30
   2 -12   9  454.25   24.40
  -2 -12  -9  421.46   22.40
   2 -12   9  455.75   20.30
   4 -12   9  307.47   22.60
   4 -12   9  287.77   19.00
  -4 -12  -9  277.27   19.50
   4 -12   9  304.37   18.10
  -4  12  -9  318.37   17.30
  -6 -12  -9   12.20    9.50
   6 -12   9   36.60    9.50
   6 -12   9   40.50   10.70
   6 -12   9   50.89   13.00
  -6  12  -9   32.20   10.10
   5 -13  -9   63.79    9.50
   5 -13  -9   33.40   11.30
  -5 -13   9  106.39   13.50
  -5 -13   9   74.09   12.70
  -5 -13   9   66.59    9.70
   3 -13  -9  199.58   14.30
   3 -13  -9  189.88   19.30
  -3 -13   9  177.78   15.20
  -3 -13   9  182.48   18.70
  -3 -13   9  222.58   15.60
  -1 -13   9  599.54   24.40
   1 -13  -9  610.34   21.20
  -1 -13   9  590.44   28.00
   1 -13  -9  558.04   27.50
  -1 -13   9  575.34   23.40
   1 -13   9   69.29   13.00
  -1 -13  -9   54.89   11.30
   1 -13   9   42.20    9.30
   1 -13   9   74.99   11.10
  -1 -13  -9   52.99    6.20
   3 -13   9   19.30    8.20
   3 -13   9    0.40    8.20
  -3 -13  -9   19.30    9.80
   3 -13   9   29.40   11.80
 -16   0  10  484.95   25.80
  16   0 -10  487.15   21.90
 -16   0  10  486.65   29.10
 -16   0  10  439.66   25.40
  16   0 -10  495.15   26.60
 -14   0  10 1211.18   38.60
 -14   0  10 1287.77   35.30
 -14   0  10 1229.98   40.60
  14   0 -10 1239.68   35.30
 -14   0  10 1229.18   39.70
  12   0 -10  304.37   15.20
 -12   0  10  315.87   17.80
 -12   0  10  283.07   17.40
 -12   0  10  296.77   18.90
 -10   0  10  544.75   20.90
  10   0 -10  516.35   18.50
 -10   0  10  521.55   21.60
  -8   0  10  350.86   15.60
   8   0 -10  348.07   14.20
  -8   0  10  353.86   16.60
  -6   0  10  798.02   25.00
  -6   0  10  811.62   24.50
   6   0 -10  745.03   22.70
  -4   0  10 1499.75   39.10
   4   0 -10 1486.05   37.20
  -4   0  10 1482.85   38.30
   4   0 -10 1494.15   38.70
  -2   0  10   12.70    4.80
   2   0 -10   13.90    4.30
   2   0 -10   12.30    4.10
  -2   0  10   11.40    4.20
   2   0 -10   12.60    3.40
   0   0 -10 1804.72   44.50
   0   0 -10 1774.12   43.90
   0   0  10 1800.52   43.90
   0   0 -10 1742.13   42.90
   0   0  10 1809.02   44.50
  -2   0 -10 3317.77   75.29
  -2   0 -10 3353.26   76.79
   2   0  10 3441.16   76.19
  -2   0 -10 3311.37   76.19
   2   0  10 3401.46   76.69
  -4   0 -10  356.06   14.30
  -4   0 -10  340.57   13.10
   4   0  10  345.17   13.80
  -4   0 -10  330.57   14.10
   6   0  10  652.13   21.40
  -6   0 -10  676.63   21.80
  -6   0 -10  672.63   21.80
   6   0  10  676.43   20.70
  -6   0 -10  655.13   20.30
   6   0  10  674.53   21.30
   8   0  10 1339.37   35.60
   8   0  10 1338.67   35.70
   8   0  10 1334.47   34.20
  -8   0 -10 1281.87   35.50
  10   0  10  259.97   12.20
 -10   0 -10  311.77   13.70
  10   0  10  273.07   15.10
 -12   0 -10  185.68   12.80
 -14   0 -10  155.38   14.20
 -15  -1  10   -0.70   10.60
  15  -1 -10  -20.50    7.80
  15  -1 -10   -4.40    8.40
 -15  -1  10   14.50   10.00
 -15  -1  10   -2.90    9.20
 -15  -1  10   10.50    7.20
 -15   1  10   16.20   10.30
 -15   1  10   -0.70    7.10
 -15   1  10    4.50   11.70
  15   1 -10   11.30    8.30
 -15   1  10  -12.20   10.00
  15   1 -10  -11.50    9.40
 -13  -1  10  642.54   26.90
  13  -1 -10  631.14   22.70
 -13  -1  10  639.14   25.10
  13  -1 -10  607.74   21.70
 -13  -1  10  607.94   25.20
 -13   1  10  615.34   26.80
 -13   1  10  607.54   25.20
 -13   1  10  622.64   22.00
  13   1 -10  594.64   21.60
 -13   1  10  605.44   25.60
 -11  -1  10  795.52   27.00
 -11  -1  10  732.23   32.40
  11  -1 -10  827.52   25.10
  11   1 -10  819.32   24.60
 -11   1  10  716.43   28.80
 -11   1  10  768.02   27.00
 -11   1  10  828.22   28.00
 -11   1  10  833.52   28.90
   9  -1 -10  838.72   25.20
  -9  -1  10  841.52   27.80
  -9  -1  10  796.82   35.10
   9   1 -10  861.51   25.50
  -9   1  10  863.11   26.80
  -9   1  10  855.91   28.20
   7  -1 -10   57.39    6.90
  -7  -1  10   61.89    8.20
  -7  -1  10   47.50    6.50
  -7   1  10   71.29    8.00
  -7   1  10   72.29    9.30
   7   1 -10   82.69    7.40
  -5  -1  10 1095.19   31.10
  -5  -1  10 1077.49   30.20
   5  -1 -10 1088.69   30.70
   5  -1 -10 1065.89   29.10
   5   1 -10 1070.29   28.90
  -5   1  10 1083.29   30.90
  -5   1  10 1127.39   30.50
   3  -1 -10 3307.47   75.29
   3  -1 -10 3185.08   74.39
   3  -1 -10 3343.97   73.79
  -3  -1  10 3240.68   74.79
  -3  -1  10 3358.76   75.89
  -3   1  10 3246.78   75.29
   3   1 -10 3263.67   73.69
   3   1 -10 3297.07   75.59
  -3   1  10 3299.27   74.69
   1  -1 -10  384.66   14.90
  -1  -1  10  389.76   14.90
   1  -1 -10  394.46   14.00
   1  -1 -10  401.56   14.90
  -1  -1  10  392.46   15.50
   1   1 -10  397.56   16.30
  -1   1  10  393.56   14.70
   1   1 -10  384.46   13.90
   1   1 -10  376.16   15.10
  -1   1  10  390.76   15.20
   1  -1  10  114.09    9.00
  -1  -1 -10  135.09    8.00
   1  -1  10  147.89    9.20
  -1  -1 -10  128.19    8.70
  -1  -1 -10  131.69    8.70
  -1   1 -10  132.29    9.30
  -1   1 -10  124.79    8.90
   1   1  10  135.79    8.60
   1   1  10  135.59   11.80
  -1   1 -10  125.99    8.10
  -3  -1 -10  285.57   11.80
  -3  -1 -10  311.77   13.20
   3  -1  10  295.47   13.00
   3  -1  10  288.07   13.20
  -3  -1 -10  292.87   12.90
  -3   1 -10  311.27   13.50
  -3   1 -10  305.27   12.20
   3   1  10  316.97   13.10
   3   1  10  299.07   12.80
  -3   1 -10  292.97   13.30
   5  -1  10 1728.93   42.90
  -5  -1 -10 1731.63   42.20
  -5  -1 -10 1707.73   41.20
  -5  -1 -10 1492.65   44.70
   5  -1  10 1712.93   42.30
  -5   1 -10 1683.33   42.60
  -5   1 -10 1623.84   42.90
   5   1  10 1716.73   41.80
   5   1  10 1715.23   42.00
   5   1  10 1708.23   42.10
  -5   1 -10 1711.23   41.60
  -7  -1 -10  739.13   22.60
   7  -1  10  723.63   22.90
  -7  -1 -10  687.53   24.80
  -7  -1 -10  728.83   21.50
   7  -1  10  735.63   23.50
  -7   1 -10  687.33   23.10
   7   1  10  725.33   22.50
   7   1  10  713.03   21.80
  -7   1 -10  689.93   23.80
   7   1  10  726.13   22.30
  -7   1 -10  701.13   23.20
   9  -1  10   -0.30    5.90
   9  -1  10    1.50    4.60
   9  -1  10   -7.50    5.40
  -9  -1 -10    3.30    4.40
  -9   1 -10   -7.60    4.30
   9   1  10    0.40    5.50
   9   1  10    3.60    4.50
 -11  -1 -10  362.16   15.30
  11  -1  10  368.26   18.30
 -11   1 -10  342.77   15.70
  11   1  10  337.77   16.30
 -13  -1 -10 1243.78   35.10
 -13   1 -10 1234.68   35.50
 -14  -2  10 1111.59   36.70
 -14  -2  10 1098.79   37.50
  14  -2 -10 1095.19   33.50
 -14  -2  10 1136.59   35.80
 -14   2  10 1086.69   36.40
  14   2 -10 1111.59   32.10
  14   2 -10 1096.59   37.10
 -14   2  10 1120.59   32.80
 -14   2  10 1142.99   39.20
 -14   2  10 1088.09   36.90
  12  -2 -10  317.27   15.80
 -12  -2  10  319.47   17.60
  12  -2 -10  311.57   15.70
 -12  -2  10  320.07   18.80
 -12   2  10  332.27   18.40
 -12   2  10  370.36   20.30
 -12   2  10  315.47   18.50
  12   2 -10  303.97   14.90
 -12   2  10  312.47   15.60
 -10  -2  10  126.89   14.50
 -10  -2  10  166.78   12.30
  10  -2 -10  138.69   10.80
 -10   2  10  150.38   14.40
  10   2 -10  132.19   14.80
 -10   2  10  159.48   12.30
 -10   2  10  143.89   15.90
  -8  -2  10 1280.67   36.50
  -8  -2  10 1327.77   36.90
   8  -2 -10 1226.28   40.00
  -8   2  10 1336.67   36.20
  -8   2  10 1314.87   35.20
   8   2 -10 1306.77   34.10
  -8   2  10 1348.07   37.60
  -6  -2  10  840.62   26.20
  -6  -2  10  856.31   25.60
   6  -2 -10  807.62   25.70
  -6   2  10  883.51   25.90
   6   2 -10  816.72   23.90
  -6   2  10  856.41   26.50
  -6   2  10  821.82   25.10
  -4  -2  10  192.68   11.00
   4  -2 -10  196.98   11.10
   4  -2 -10  184.58    9.80
  -4  -2  10  195.48   11.30
   4  -2 -10  181.58   11.00
  -4   2  10  194.88   11.30
   4   2 -10  204.08   10.00
  -4   2  10  207.98   11.00
   2  -2 -10   28.60    5.10
   2  -2 -10   27.90    4.60
   2  -2 -10   20.40    4.20
  -2  -2  10   36.50    5.50
  -2  -2  10   19.10    4.70
  -2   2  10   25.40    5.30
   2   2 -10   18.00    4.30
   2   2 -10   20.30    3.90
  -2   2  10   25.10    4.70
  -2   2  10   32.20    5.50
   0  -2 -10  601.24   18.20
   0  -2  10  586.24   19.40
   0  -2  10  584.94   19.80
   0  -2 -10  618.74   19.60
   0  -2 -10  570.14   18.70
   0   2  10  562.34   18.70
   0   2  10  576.04   19.20
   0   2 -10  592.14   19.80
   0   2  10  589.74   17.40
   0   2  10  608.14   19.50
   0   2 -10  602.54   18.50
   2  -2  10 1836.12   44.60
   2  -2  10 1801.42   45.00
  -2  -2 -10 1757.82   43.60
  -2  -2 -10 1735.63   46.70
  -2  -2 -10 1807.62   43.20
   2   2  10 1851.61   44.30
  -2   2 -10 1829.62   45.30
  -2   2 -10 1798.32   43.60
   2   2  10 1756.12   43.50
   2   2  10 1775.82   44.40
   4  -2  10  657.73   21.10
  -4  -2 -10  645.14   20.30
   4  -2  10  668.23   21.60
  -4  -2 -10  652.83   19.60
  -4  -2 -10  651.33   20.80
   4   2  10  678.13   20.40
  -4   2 -10  665.23   21.60
   4   2  10  655.93   20.50
  -4   2 -10  660.03   20.20
   4   2  10  662.03   21.00
  -6  -2 -10  137.79    9.70
  -6  -2 -10  151.88    9.00
   6  -2  10  153.08   11.00
   6  -2  10  139.09   10.40
  -6  -2 -10  153.28   10.30
   6   2  10  151.88    9.90
  -6   2 -10  152.18    9.20
   6   2  10  143.19    9.90
   6   2  10  139.29    9.50
  -6   2 -10  148.59   11.10
   8  -2  10  812.52   25.30
   8  -2  10  786.12   25.60
  -8  -2 -10  815.22   23.30
   8   2  10  784.92   24.00
  -8   2 -10  813.42   24.10
   8   2  10  777.42   23.60
  10  -2  10  995.90   26.60
 -10  -2 -10  963.10   27.30
  10  -2  10  992.50   30.00
 -10   2 -10  966.30   28.40
  10   2  10  924.71   26.60
 -12  -2 -10  116.19   11.10
  12  -2  10  120.09   15.50
 -12   2 -10   93.19   11.80
 -14  -2 -10   43.00    8.80
 -14   2 -10   41.00    8.90
 -15  -3  10  173.58   19.30
 -15  -3  10  173.78   16.80
 -15  -3  10  173.28   18.40
  15  -3 -10  168.18   16.90
  15   3 -10  196.98   19.90
 -15   3  10  175.18   19.50
 -15   3  10  184.38   14.90
 -15   3  10  176.88   18.90
 -15   3  10  210.48   20.40
 -13  -3  10   23.90    8.00
  13  -3 -10   19.80    7.50
 -13  -3  10   31.80    9.70
 -13  -3  10   30.40    8.70
  13  -3 -10   26.80    7.90
  13   3 -10   25.50    9.40
 -13   3  10   33.10    8.20
 -13   3  10   23.50   10.80
 -13   3  10   10.90    8.40
 -13   3  10   22.40    9.90
  13   3 -10   31.10    7.40
  11  -3 -10  265.87   14.50
 -11  -3  10  267.37   15.20
 -11  -3  10  257.67   16.50
 -11   3  10  261.27   17.80
 -11   3  10  293.87   16.90
  11   3 -10  267.37   17.10
 -11   3  10  291.47   16.90
 -11   3  10  245.38   14.10
  -9  -3  10  897.91   29.10
   9  -3 -10  894.71   26.90
  -9  -3  10  929.51   28.20
  -9   3  10  953.20   28.80
  -9   3  10  873.91   29.60
   9   3 -10  908.61   25.70
  -9   3  10  950.50   29.40
   9   3 -10  923.61   31.00
  -9   3  10  782.32   30.90
   7  -3 -10   87.19    8.80
  -7  -3  10   94.69    9.80
  -7  -3  10  101.69    9.20
   7  -3 -10   89.89    9.10
  -7   3  10  107.19   10.10
  -7   3  10   84.19    8.50
  -7   3  10   92.69   10.40
   7   3 -10   81.79    7.70
  -5  -3  10 1354.76   36.60
   5  -3 -10 1334.77   35.40
   5  -3 -10 1418.76   37.10
  -5  -3  10 1424.76   37.90
   5  -3 -10 1413.96   39.40
  -5   3  10 1393.66   37.50
  -5   3  10 1417.76   36.90
  -5   3  10 1409.16   36.90
   5   3 -10 1366.16   35.20
   3  -3 -10  224.28   11.60
   3  -3 -10  248.98   10.80
  -3  -3  10  216.08   11.40
  -3  -3  10  239.38   12.50
   3  -3 -10  228.98   11.60
  -3   3  10  241.38   11.70
  -3   3  10  247.68   12.50
   3   3 -10  231.78   10.70
  -3   3  10  236.18   11.70
   1  -3 -10  111.99    7.20
   1  -3 -10   85.09    7.60
  -1  -3  10  100.29    8.10
  -1  -3  10   99.39    8.80
   1  -3 -10   77.49    7.40
   1   3 -10   94.09    7.50
   1   3 -10   89.29    8.90
  -1   3  10  107.69    8.20
  -1   3  10   86.49    8.00
  -1   3  10   91.39    7.40
  -1   3  10  104.39    8.00
   1  -3  10  193.48   11.30
  -1  -3 -10  196.38   10.30
   1  -3  10  189.68   10.70
  -1  -3 -10  203.68    9.60
  -1  -3 -10  211.58   10.20
   1   3  10  206.38   10.40
   1   3  10  224.98   11.40
   1   3  10  203.28   10.50
  -1   3 -10  206.98   11.90
  -1   3 -10  211.08   10.30
  -3  -3 -10  235.88   11.30
  -3  -3 -10  246.58   10.70
   3  -3  10  257.17   12.30
   3  -3  10  243.78   12.60
  -3  -3 -10  236.78   11.30
   3  -3  10  233.88   13.80
  -3   3 -10  249.18   12.90
  -3   3 -10  243.88   11.30
   3   3  10  249.08   11.70
   3   3  10  251.87   12.30
   3   3  10  231.38   11.20
   5  -3  10   13.20    5.90
   5  -3  10   23.70    5.60
  -5  -3 -10   25.10    4.80
  -5  -3 -10   20.30    5.00
  -5  -3 -10   13.70    3.90
   5  -3  10   11.10    4.80
  -5   3 -10   15.30    4.30
   5   3  10   25.40    5.60
   5   3  10   20.20    5.00
   5   3  10   -1.20    6.10
  -5   3 -10    9.40    4.90
   7  -3  10  642.04   22.30
  -7  -3 -10  665.93   19.60
  -7  -3 -10  618.84   21.40
   7  -3  10  610.84   24.60
   7  -3  10  638.14   21.70
  -7   3 -10  652.63   20.80
   7   3  10  642.14   20.30
  -7   3 -10  608.14   22.60
   7   3  10  627.94   20.70
  -9  -3 -10   90.19    8.80
   9  -3  10  111.69   12.30
   9  -3  10  100.29   12.50
   9  -3  10  107.79   11.70
   9   3  10   98.19    9.50
  -9   3 -10   93.09    9.60
 -11  -3 -10  976.60   28.50
  11  -3  10 1033.70   32.20
  11  -3  10 1001.60   35.80
 -11   3 -10 1080.79   30.50
  11   3  10  970.10   29.60
 -13  -3 -10  544.45   20.60
  13  -3  10  554.84   25.90
 -13   3 -10  532.45   22.00
  14  -4 -10   60.99   10.90
  14  -4 -10   76.39   10.60
 -14  -4  10   40.50   10.30
 -14  -4  10   60.69   12.30
 -14  -4  10   55.49   10.10
  14   4 -10   61.69   11.50
 -14   4  10   61.89   11.20
 -14   4  10   66.19   13.10
 -14   4  10   48.40   13.90
 -14   4  10   58.29    9.90
 -12  -4  10    7.30    7.80
  12  -4 -10   12.70    6.90
 -12  -4  10    1.40    6.70
 -12   4  10    2.20    6.40
 -12   4  10   13.40    7.50
  12   4 -10    8.60    5.90
  12   4 -10    2.70    7.30
 -12   4  10    0.20    8.60
 -12   4  10    7.60    8.20
 -10  -4  10   52.49    7.60
 -10  -4  10   44.00    7.50
  10  -4 -10   50.19    7.20
 -10   4  10   52.39    8.60
 -10   4  10   45.40   13.50
  10   4 -10   39.00    6.30
 -10   4  10   44.70    7.00
 -10   4  10   59.19   10.50
   8  -4 -10   51.19    7.80
   8  -4 -10   65.09    7.40
  -8  -4  10   65.59    8.40
  -8  -4  10   53.39    7.20
   8   4 -10   65.89    7.60
  -8   4  10   49.00    9.90
  -8   4  10   55.99    7.80
  -8   4  10   65.29    9.60
   6  -4 -10   39.20    5.60
   6  -4 -10   39.90    6.60
  -6  -4  10   39.60    6.20
  -6  -4  10   51.19    7.00
  -6   4  10   44.40    6.90
  -6   4  10   45.50    7.60
   6   4 -10   52.39    6.10
  -6   4  10   69.59    8.00
   4  -4 -10   13.80    4.50
  -4  -4  10   16.00    4.90
   4  -4 -10   13.10    4.90
   4  -4 -10   10.70    3.70
  -4  -4  10    7.90    4.30
  -4   4  10   16.00    4.70
  -4   4  10   14.10    5.10
  -4   4  10   11.80    5.50
   4   4 -10   10.90    4.10
   2  -4 -10  244.48   11.50
   2  -4 -10  241.38   10.70
  -2  -4  10  246.08   12.20
   2  -4 -10  252.07   11.80
  -2  -4  10  245.28   12.80
   2   4 -10  255.67   11.20
  -2   4  10  259.17   11.80
  -2   4  10  230.08   10.30
  -2   4  10  245.38   12.10
  -2   4  10  228.98   12.10
   0  -4  10  201.88   11.00
   0  -4 -10  201.28    9.50
   0  -4  10  187.08   12.10
   0  -4 -10  187.08   10.00
   0  -4 -10  195.68   10.40
   0  -4  10  181.38   11.20
   0   4  10  177.38   10.10
   0   4  10  195.08   11.10
   0   4 -10  196.68   10.30
   0   4  10  178.28    8.40
   0   4  10  202.18   10.30
  -2  -4 -10 1042.30   28.00
   2  -4  10 1073.09   32.70
   2  -4  10 1110.19   30.30
  -2  -4 -10 1107.79   28.90
  -2  -4 -10 1057.89   29.10
   2  -4  10 1062.39   30.60
   2   4  10 1070.39   28.50
   2   4  10 1037.00   30.10
  -2   4 -10 1099.39   29.30
  -4  -4 -10    4.50    3.50
   4  -4  10   -1.60    4.10
  -4  -4 -10    6.90    4.20
   4  -4  10    0.70    4.40
  -4  -4 -10    3.60    3.80
   4  -4  10   12.40    6.10
   4   4  10    2.40    4.00
   4   4  10    3.30    4.20
   4   4  10    8.80    4.40
  -4   4 -10    1.70    3.60
  -6  -4 -10   61.29    7.10
   6  -4  10   84.59   10.00
   6  -4  10   83.29   10.70
  -6  -4 -10   66.99    7.30
   6  -4  10   80.09    9.20
  -6  -4 -10   74.19    7.30
   6   4  10   70.89    7.90
  -6   4 -10   72.89    8.00
  -6   4 -10   66.19    7.70
   6   4  10   74.79    8.70
   8  -4  10  159.78   13.30
  -8  -4 -10  168.38    9.90
   8  -4  10  184.08   12.80
   8  -4  10  167.08   15.00
  -8   4 -10  161.78   10.70
   8   4  10  172.08   11.50
  10  -4  10   26.60    9.60
 -10  -4 -10   20.10    5.70
  10  -4  10   11.70    7.30
 -10   4 -10   25.70    6.60
  10   4  10   32.40    6.80
  12  -4  10   17.30    9.00
  12  -4  10   -8.00   10.60
 -12  -4 -10   16.10    6.60
 -12   4 -10   11.70    6.80
 -13  -5  10    8.30    8.60
 -13  -5  10   -3.50    7.60
 -13  -5  10   23.10    9.70
  13  -5 -10   13.50    8.60
  13  -5 -10    6.10    8.10
 -13   5  10    9.80    7.70
 -13   5  10    9.90    8.90
 -13   5  10    5.60   10.70
 -13   5  10   20.40   11.00
  13   5 -10   16.10    9.60
  11  -5 -10   14.50    6.40
  11  -5 -10    5.40    7.10
 -11  -5  10   10.80    7.00
 -11  -5  10   15.20    6.60
 -11   5  10    9.80    9.80
 -11   5  10   27.30    8.50
  11   5 -10    5.10    5.90
  11   5 -10    1.20    6.70
 -11   5  10   16.30    7.70
 -11   5  10   17.50    6.60
  -9  -5  10   16.10    5.60
   9  -5 -10   13.70    5.40
  -9  -5  10   13.70    6.20
  -9   5  10   17.10    6.70
  -9   5  10   -3.00    5.30
  -9   5  10   14.70    8.30
   9   5 -10    8.90    4.90
   9   5 -10   12.60    6.90
  -9   5  10   21.60    7.60
   7  -5 -10   91.09   10.30
   7  -5 -10  100.79    9.20
  -7  -5  10  113.09    9.90
  -7  -5  10  106.59   12.10
  -7   5  10  129.79   12.20
  -7   5  10  110.99   11.00
  -7   5  10  113.19   10.10
  -7   5  10  102.29   10.20
   7   5 -10  102.49    8.60
  -5  -5  10    8.20    4.30
  -5  -5  10    6.00    5.00
   5  -5 -10    1.80    5.10
   5  -5 -10    5.10    4.80
   5  -5 -10   11.60    4.30
  -5   5  10   10.40    5.50
   5   5 -10   15.40    4.60
  -5   5  10    5.60    5.20
  -5   5  10    2.00    4.40
   3  -5 -10  175.78   10.70
  -3  -5  10  179.98   10.80
  -3  -5  10  185.48   11.60
   3  -5 -10  189.78   10.90
   3  -5 -10  193.58    9.90
  -3   5  10  182.68   11.30
   3   5 -10  199.68   10.20
  -3   5  10  193.38    9.80
  -3   5  10  193.58   11.40
  -3   5  10  201.68   11.40
  -1  -5  10    5.10    4.00
   1  -5 -10   14.00    4.20
  -1  -5  10   11.50    4.90
   1  -5 -10    6.50    3.70
  -1  -5  10    7.20    4.70
   1  -5 -10    4.70    3.60
   1   5 -10    8.50    4.00
  -1   5  10    9.10    4.30
  -1   5  10    4.90    4.30
  -1   5  10   14.30    4.80
  -1   5  10   11.80    4.00
   1  -5  10   43.00    6.40
  -1  -5 -10   33.70    5.20
  -1  -5 -10   38.70    5.00
   1  -5  10   37.40    7.10
   1  -5  10   34.40    6.00
  -1  -5 -10   38.00    5.20
  -1   5 -10   34.10    5.20
   1   5  10   22.10    5.20
   1   5  10   31.50    6.00
   3  -5  10   61.49    8.00
  -3  -5 -10   57.99    6.60
  -3  -5 -10   59.49    7.20
  -3  -5 -10   39.50    5.30
   3  -5  10   52.19    8.30
   3  -5  10   68.29    9.10
  -3   5 -10   52.59    6.50
   3   5  10   51.59    7.10
   3   5  10   54.99    7.30
   3   5  10   58.59    7.40
  -5  -5 -10    0.70    3.90
   5  -5  10   12.30    5.90
   5  -5  10    4.00    4.60
  -5  -5 -10    2.40    3.90
   5  -5  10   -7.00    4.50
  -5  -5 -10    2.50    3.60
   5   5  10    7.60    4.40
  -5   5 -10   -4.30    3.70
  -5   5 -10    6.60    5.30
   5   5  10   12.10    5.00
  -7  -5 -10    1.70    3.90
   7  -5  10    6.70    7.00
   7  -5  10   -6.00    5.50
   7  -5  10   -1.00    5.30
  -7   5 -10   -0.20    4.70
   7   5  10    2.60    5.40
   9  -5  10    7.20    6.90
   9  -5  10    3.40    7.00
   9  -5  10    1.60    7.70
  -9  -5 -10    7.10    4.60
  -9   5 -10   -1.50    5.10
   9   5  10    7.80    5.90
 -11  -5 -10    2.10    5.40
  11  -5  10   18.40    8.60
  11  -5  10    1.60   10.30
 -11   5 -10    4.00    6.50
 -13  -5 -10   20.90    7.60
  13  -5  10   14.20   11.50
  13  -5  10   38.10   14.20
 -13   5 -10   18.10    8.20
  14  -6 -10   22.70   12.10
 -14  -6  10   20.50   10.10
  14  -6 -10   24.20    9.60
 -14  -6  10   14.40    9.00
 -14  -6  10   27.60   10.90
 -14   6  10   29.20    9.70
 -14   6  10   15.90   10.80
 -14   6  10   26.70   12.70
  14   6 -10   21.50   12.10
 -12  -6  10   -0.30    7.10
 -12  -6  10   15.80    8.20
  12  -6 -10   -2.00    8.10
  12  -6 -10    5.40    7.40
 -12   6  10   15.10   10.50
 -12   6  10   14.10    9.30
  12   6 -10   27.30    9.70
 -12   6  10   15.10    7.50
  10  -6 -10    4.90    5.90
 -10  -6  10   18.60    6.50
 -10  -6  10    6.40    6.60
  10  -6 -10   13.10    7.30
 -10   6  10   21.60    8.00
  10   6 -10    9.50    5.50
 -10   6  10    4.60    6.50
 -10   6  10  -10.90    8.50
  10   6 -10    5.40    6.80
 -10   6  10   17.00    9.50
  -8  -6  10  208.38   13.70
  -8  -6  10  184.28   12.80
   8  -6 -10  210.58   12.10
   8   6 -10  189.28   12.60
  -8   6  10  194.68   14.10
   8   6 -10  194.88   10.70
  -8   6  10  221.38   15.00
  -8   6  10  220.48   13.40
  -8   6  10  217.68   16.50
   6  -6 -10  227.68   11.50
  -6  -6  10  213.88   14.10
  -6  -6  10  205.28   12.20
   6  -6 -10  179.38   19.30
  -6   6  10  190.18   12.70
  -6   6  10  221.58   13.40
  -6   6  10  206.08   13.20
  -6   6  10  188.58   14.50
   6   6 -10  224.38   10.80
  -4  -6  10   58.59    7.80
  -4  -6  10   54.79    7.30
   4  -6 -10   64.99    7.60
   4  -6 -10   69.79    8.20
   4  -6 -10   56.79    6.80
  -4  -6  10   42.50    6.60
  -4   6  10   66.39    8.90
  -4   6  10   61.09    6.40
   4   6 -10   60.19    7.30
  -4   6  10   56.39    7.20
  -4   6  10   59.79    7.80
   2  -6 -10  103.59    8.60
  -2  -6  10   84.69   10.20
  -2  -6  10   97.99    9.70
   2  -6 -10   96.09    7.80
  -2  -6  10   95.79    8.90
   2  -6 -10   99.89    8.50
  -2   6  10   91.79    9.40
   2   6 -10   98.49    8.20
  -2   6  10   95.59    7.00
  -2   6  10   72.39    8.80
   0  -6  10   34.10    5.90
   0  -6 -10   36.10    5.20
   0  -6  10   38.60    7.20
   0  -6  10   36.00    6.30
   0  -6 -10   21.50    4.70
   0  -6 -10   44.30    5.90
   0   6  10   37.90    6.40
   0   6 -10   34.20    5.60
   0   6  10   27.40    6.00
   0   6  10   30.10    5.80
  -2  -6 -10   64.69    7.00
   2  -6  10   37.40    6.40
  -2  -6 -10   50.39    6.70
   2  -6  10   49.00    6.60
  -2  -6 -10   47.70    5.70
   2   6  10   57.19    7.30
  -2   6 -10   44.90    6.20
   2   6  10   52.69    6.40
   2   6  10   48.90    7.40
  -4  -6 -10  115.29    8.20
   4  -6  10  109.79   11.90
   4  -6  10  110.19   10.70
   4  -6  10   93.89   10.80
  -4  -6 -10  101.49    8.00
   4   6  10   95.99    8.40
  -4   6 -10   98.99    9.10
   4   6  10   97.69   10.10
   6  -6  10   83.29   11.10
  -6  -6 -10   89.19    8.00
   6  -6  10   77.59    9.00
   6  -6  10   95.79   12.70
  -6   6 -10   92.79    9.60
   6   6  10   87.89   10.10
   8  -6  10   51.29    8.70
  -8  -6 -10   45.10    6.30
   8  -6  10   67.89   11.40
   8  -6  10   59.99    9.30
  -8   6 -10   32.70    7.00
   8   6  10   47.50    8.10
  10  -6  10  291.07   18.40
  10  -6  10  290.77   21.70
  10  -6  10  339.17   20.10
 -10  -6 -10  262.57   18.90
 -10   6 -10  326.57   16.60
 -12  -6 -10   14.10    6.90
  12  -6  10   12.40   12.80
  12  -6  10   29.10   10.50
 -12   6 -10   11.50    8.00
 -13  -7  10  264.47   18.40
 -13  -7  10  291.87   19.90
  13  -7 -10  276.87   21.70
  13  -7 -10  261.27   18.10
 -13   7  10  298.77   18.60
  13   7 -10  261.17   21.80
 -13   7  10  250.47   24.20
 -13   7  10  276.17   21.70
  11  -7 -10   99.29   12.10
 -11  -7  10  121.89   13.30
 -11  -7  10   92.09   11.00
  11  -7 -10  100.39   10.70
 -11   7  10   96.09   12.10
 -11   7  10  105.49   13.50
 -11   7  10   97.89   11.20
  11   7 -10  108.29   12.40
   9  -7 -10  127.49   14.10
  -9  -7  10  123.09   11.70
   9  -7 -10  118.69   11.20
  -9  -7  10  118.09   12.80
  -9   7  10  115.99   12.30
  -9   7  10  112.09   13.70
   9   7 -10  117.29    9.50
  -9   7  10  123.09   15.50
   7  -7 -10    8.20    5.20
  -7  -7  10   -2.50    5.20
  -7  -7  10    1.10    5.20
  -7   7  10    2.60    5.90
   7   7 -10    1.50    4.50
  -7   7  10    1.40    6.90
   7   7 -10   11.50    5.60
  -7   7  10  -11.00    5.70
  -5  -7  10   15.20    6.20
  -5  -7  10   19.50    5.30
   5  -7 -10    7.00    4.30
  -5  -7  10   19.40    5.90
  -5   7  10   17.00    6.10
   5   7 -10   12.30    4.80
  -5   7  10   19.40    6.70
  -5   7  10    2.60    5.70
   5   7 -10   14.00    5.20
  -5   7  10   21.90    7.10
  -3  -7  10  108.69    9.60
  -3  -7  10   88.99   12.30
  -3  -7  10   97.19   11.00
   3  -7 -10   87.39   10.90
   3  -7 -10   87.49    8.00
  -3   7  10   79.99    9.60
  -3   7  10   83.49    9.70
   3   7 -10   86.89    8.30
  -3   7  10   99.79   10.50
   1  -7 -10 1248.08   33.60
   1  -7 -10 1247.08   34.40
  -1  -7  10 1280.97   37.60
  -1  -7  10 1297.37   35.90
   1  -7 -10 1278.77   32.70
  -1  -7  10 1288.67   35.10
   1   7 -10 1282.77   33.30
  -1   7  10 1310.27   37.70
  -1   7  10 1258.57   33.30
  -1   7  10 1233.38   36.00
  -1  -7 -10   74.19    7.30
  -1  -7 -10   71.09    7.30
   1  -7  10   81.79    9.20
   1  -7  10   80.19    9.80
   1  -7  10   85.59   11.20
   1   7  10   67.99    8.20
  -1   7 -10   68.59    7.40
   1   7  10   75.39   10.30
   3  -7  10  757.22   27.60
   3  -7  10  722.73   24.10
   3  -7  10  739.73   25.00
  -3  -7 -10  706.33   21.50
  -3  -7 -10  711.33   21.10
   3   7  10  731.73   25.00
  -3   7 -10  764.82   23.30
   5  -7  10  493.15   20.50
   5  -7  10  512.05   20.10
   5  -7  10  521.45   23.30
  -5  -7 -10  490.55   16.60
  -5   7 -10  517.25   18.80
   5   7  10  499.45   20.10
   7  -7  10   78.59   10.50
  -7  -7 -10   67.39    7.00
   7  -7  10   62.29    9.30
   7  -7  10   63.09   10.40
  -7   7 -10   52.59    7.90
   7   7  10   87.49   11.30
  -9  -7 -10   14.40    5.30
   9  -7  10   18.10    8.70
   9  -7  10    4.70    9.50
   9  -7  10   10.20    8.60
  -9   7 -10    8.70    6.90
  11  -7  10   70.29   14.70
 -11  -7 -10   67.19    8.40
  11  -7  10   77.09   12.50
 -11   7 -10   55.89   10.00
  12  -8 -10    3.50   10.60
 -12  -8  10   15.90    8.20
 -12  -8  10   16.60    8.70
  12  -8 -10   26.30    8.50
 -12   8  10   20.50    9.60
 -12   8  10    6.00   10.80
  12   8 -10    5.20   10.80
 -12   8  10   23.40   12.40
  10  -8 -10   27.80    8.60
  10  -8 -10   23.00    7.70
 -10  -8  10   16.90    7.50
 -10  -8  10   28.80    8.00
 -10   8  10    6.40    7.70
  10   8 -10   14.20    8.50
 -10   8  10   31.10   17.70
 -10   8  10   20.40    9.30
   8  -8 -10  219.18   17.10
   8  -8 -10  210.08   13.40
  -8  -8  10  239.48   15.40
  -8  -8  10  254.07   15.10
  -8   8  10  257.67   17.90
  -8   8  10  234.48   15.40
   8   8 -10  243.08   14.80
   8   8 -10  226.68   11.90
  -8   8  10  235.58   16.20
  -6  -8  10  876.11   27.40
  -6  -8  10  844.02   28.10
   6  -8 -10  853.61   29.90
   6  -8 -10  868.51   26.30
  -6  -8  10  903.81   28.70
  -6   8  10  852.91   28.80
   6   8 -10  878.31   23.90
  -6   8  10  821.52   34.40
   6   8 -10  863.01   25.50
  -6   8  10  877.41   28.20
  -4  -8  10  130.19   13.30
  -4  -8  10  140.39   11.00
   4  -8 -10  177.48   10.50
  -4  -8  10  150.08   11.90
   4   8 -10  149.19    9.70
   4   8 -10  174.58   10.20
  -4   8  10  161.88   12.80
  -4   8  10  170.38   12.50
  -4   8  10  154.38   12.10
   2  -8 -10  289.27   12.70
  -2  -8  10  302.77   15.40
  -2  -8  10  293.67   14.70
  -2   8  10  285.77   14.20
  -2   8  10  297.57   15.80
   2   8 -10  273.47   12.80
   2   8 -10  288.17   10.80
  -2   8  10  294.97   14.40
   0  -8  10  603.44   21.60
   0  -8  10  634.94   24.70
   0  -8  10  602.34   22.40
   0  -8 -10  614.24   19.30
   0   8  10  611.14   23.20
   0   8 -10  649.74   20.40
   0   8  10  629.64   24.10
  -2  -8 -10  410.66   14.70
   2  -8  10  402.16   20.40
   2  -8  10  421.56   17.70
   2  -8  10  393.56   23.80
   2   8  10  405.46   18.60
  -2   8 -10  370.16   18.80
   4  -8  10   43.70    9.00
   4  -8  10   41.30    9.60
   4  -8  10   68.49    8.80
  -4  -8 -10   66.09    7.60
   4   8  10   51.19    8.80
  -4   8 -10   55.19    7.50
   6  -8  10   74.19   11.30
   6  -8  10   72.49    9.30
   6  -8  10  109.29   13.20
  -6  -8 -10   82.29    8.80
   6   8  10   90.39   12.10
  -6   8 -10   76.39    8.80
   8  -8  10  369.26   23.40
   8  -8  10  367.76   19.40
  -8  -8 -10  357.66   14.40
   8  -8  10  351.96   20.60
  -8   8 -10  354.26   17.70
  10  -8  10  479.95   27.40
  10  -8  10  464.35   25.30
  10  -8  10  460.85   23.80
 -10   8 -10  470.15   21.40
 -11  -9  10  882.51   30.30
 -11  -9  10  940.51   32.20
  11  -9 -10  986.20   36.20
  11  -9 -10  926.61   31.10
  11   9 -10  926.01   33.00
 -11   9  10  938.11   34.70
 -11   9  10  848.62   31.90
   9  -9 -10  417.46   19.10
  -9  -9  10  395.56   20.10
   9  -9 -10  440.26   22.80
  -9  -9  10  409.76   19.60
  -9   9  10  435.46   22.30
  -9   9  10  418.36   21.00
   9   9 -10  422.56   21.20
   7  -9 -10   -1.20    5.90
  -7  -9  10    7.80    6.60
   7  -9 -10   11.20    8.30
  -7  -9  10    9.40    6.50
  -7   9  10    3.50    7.70
  -7   9  10    1.20    7.10
   7   9 -10   -2.10    6.60
   5  -9 -10  317.07   14.80
   5  -9 -10  351.76   19.00
  -5  -9  10  325.07   21.60
  -5  -9  10  317.97   15.90
  -5  -9  10  311.77   16.80
   5   9 -10  329.07   13.20
   5   9 -10  310.87   13.70
  -5   9  10  333.17   18.00
  -5   9  10  339.67   17.10
  -3  -9  10  916.71   28.40
   3  -9 -10  871.31   26.20
  -3  -9  10  922.61   29.30
  -3  -9  10  921.11   30.80
  -3   9  10  933.31   27.90
  -3   9  10  871.31   30.10
   3   9 -10  917.91   25.40
   1  -9 -10  596.94   19.20
  -1  -9  10  579.54   22.20
  -1  -9  10  554.54   23.90
  -1  -9  10  612.04   21.50
   1   9 -10  612.34   19.60
  -1   9  10  590.94   23.60
  -1   9  10  578.14   20.30
  -1  -9 -10    7.00    4.50
   1  -9  10   16.50    6.10
   1  -9  10    4.30    6.60
   1  -9  10    1.30    5.90
   1   9  10   15.40    7.30
  -1   9 -10   12.00    6.20
   1   9  10    5.90    5.20
  -3  -9 -10  176.28   10.50
   3  -9  10  206.98   13.70
   3  -9  10  169.88   14.20
   3  -9  10  202.98   16.60
   3   9  10  189.28   11.20
   3   9  10  186.78   14.30
  -3   9 -10  187.08   12.80
   5  -9  10 1128.99   38.80
  -5  -9 -10 1152.58   30.10
   5  -9  10 1144.99   34.90
   5  -9  10 1150.68   35.70
  -5   9 -10 1186.68   33.50
   5   9  10 1134.79   35.50
  -7  -9 -10  709.63   21.50
   7  -9  10  642.74   27.20
   7  -9  10  676.43   30.50
   7  -9  10  727.33   27.30
  -7   9 -10  683.63   24.70
   9  -9  10    6.70   11.30
   9  -9  10   11.60   10.10
   9  -9  10   13.70    9.70
  -9   9 -10    4.00    8.30
 -10 -10  10  182.58   15.30
  10 -10 -10  146.09   17.20
  10 -10 -10  139.79   15.30
 -10 -10  10  139.29   15.30
 -10  10  10  125.09   14.90
 -10  10  10  154.08   17.50
   8 -10 -10  762.52   31.20
  -8 -10  10  748.43   27.50
   8 -10 -10  724.73   25.90
  -8 -10  10  760.32   26.40
  -8  10  10  722.73   28.50
  -8  10  10  736.33   28.80
   6 -10 -10 1773.52   51.79
   6 -10 -10 1806.72   46.60
  -6 -10  10 1865.61   49.30
  -6 -10  10 1781.22   47.40
  -6 -10  10 1878.81   49.80
  -6  10  10 1760.02   48.20
  -6  10  10 1760.02   50.19
  -4 -10  10  185.08   14.30
   4 -10 -10  166.48   15.60
   4 -10 -10  195.48   12.50
  -4 -10  10  186.68   13.50
  -4 -10  10  198.48   16.20
  -4  10  10  181.48   15.40
  -4  10  10  182.88   14.40
   2 -10 -10  781.22   24.10
   2 -10 -10  839.42   30.00
  -2 -10  10  782.22   26.50
  -2 -10  10  801.02   27.30
  -2 -10  10  823.72   29.90
  -2  10  10  809.62   25.40
   2  10 -10  775.92   23.10
  -2  10  10  746.03   28.30
   0 -10 -10  516.35   17.80
   0 -10  10  532.15   21.80
   0 -10  10  504.85   23.90
   0 -10  10  503.65   20.70
   0  10  10  521.75   18.60
   0  10 -10  545.65   19.00
   0  10  10  526.25   23.10
   2 -10  10  344.97   18.40
   2 -10  10  347.87   20.80
   2 -10  10  345.07   17.30
  -2 -10 -10  312.87   13.70
  -2  10 -10  342.77   16.10
   2  10  10  357.96   19.60
   4 -10  10  476.75   21.30
   4 -10  10  441.26   21.40
  -4 -10 -10  483.75   16.60
   4 -10  10  465.25   24.80
   4  10  10  485.15   23.00
  -4  10 -10  461.55   19.60
   6 -10  10    6.60    9.60
   6 -10  10   -8.70    7.30
   6 -10  10    7.30    9.00
  -6  10 -10   22.70    8.50
   8 -10  10 1028.90   34.20
   8 -10  10  985.30   35.50
   8 -10  10  938.71   38.40
  -8  10 -10  907.41   31.10
  -7 -11  10   16.80    7.80
  -7 -11  10    7.00    9.70
   7 -11 -10   22.10    8.10
   7 -11 -10   18.70   10.20
  -7 -11  10    5.20    7.50
  -7  11  10   28.00   10.30
  -7  11  10   27.60   10.10
  -5 -11  10  264.07   19.20
   5 -11 -10  291.67   15.90
  -5 -11  10  287.17   17.40
   5 -11 -10  274.37   20.50
  -5 -11  10  256.47   16.20
  -5  11  10  279.87   19.50
  -5  11  10  292.17   18.40
  -3 -11  10 1159.98   37.80
   3 -11 -10 1163.88   32.40
  -3 -11  10 1134.79   35.30
   3 -11 -10 1118.19   38.30
  -3 -11  10 1147.89   34.40
  -3  11  10 1104.79   37.20
  -3  11  10 1143.19   33.40
   1 -11 -10  429.86   22.80
   1 -11 -10  433.46   17.10
  -1 -11  10  441.86   23.00
  -1 -11  10  452.95   20.00
  -1 -11  10  437.56   20.60
  -1  11  10  480.65   23.00
   1 -11  10   25.80    9.80
  -1 -11 -10   21.20    8.50
   1 -11  10   20.80    8.10
  -1 -11 -10   15.70    5.90
   1 -11  10   19.20    7.40
   1  11  10   33.10    9.80
  -1  11 -10   23.40    9.00
   3 -11  10  339.17   20.10
   3 -11  10  335.57   18.40
  -3 -11 -10  329.87   14.70
   3 -11  10  337.47   22.40
  -3 -11 -10  307.37   20.20
  -3  11 -10  363.06   17.70
   5 -11  10 1484.25   43.20
   5 -11  10 1416.66   47.50
   5 -11  10 1449.06   43.80
  -5  11 -10 1478.25   40.50
   7 -11  10  279.07   24.00
   7 -11  10  219.68   19.30
   7 -11  10  223.08   20.80
  -7  11 -10  210.88   18.30
  -6 -12  10  242.38   17.90
  -6 -12  10  236.88   20.40
   6 -12 -10  246.78   17.10
  -6 -12  10  257.67   17.00
   6 -12 -10  246.98   21.60
  -6  12  10  229.88   20.20
  -4 -12  10  147.99   14.70
   4 -12 -10  145.29   18.40
  -4 -12  10  157.98   19.10
   4 -12 -10  154.58   14.00
  -4 -12  10  182.68   15.80
   2 -12 -10   15.00    9.80
  -2 -12  10   13.50    8.10
  -2 -12  10    9.20    9.40
   2 -12 -10   14.40    6.90
  -2 -12  10    3.10    7.70
   0 -12  10 1039.50   37.80
   0 -12 -10 1041.90   30.00
   0 -12  10 1079.09   34.90
   0 -12 -10 1034.40   37.00
   0 -12  10 1063.79   33.70
  -2 -12 -10  580.94   27.70
   2 -12  10  608.84   25.00
   2 -12  10  688.23   30.20
   2 -12  10  678.13   27.50
   4 -12  10   -5.20    7.80
   4 -12  10    9.30    9.00
  -4 -12 -10    6.00    9.70
   4 -12  10   10.30   10.70
  -4  12 -10    4.10    9.70
 -14   0  11    2.10   10.80
 -14   0  11   -2.40    7.40
 -14   0  11   -7.10    9.60
  14   0 -11   -0.90    8.20
 -14   0  11    7.80    9.70
  12   0 -11   -0.40    6.80
 -12   0  11   -2.90    7.50
 -12   0  11   -3.10    7.50
 -12   0  11    5.90    9.10
 -10   0  11    1.60    6.60
 -10   0  11   -5.90    6.50
  10   0 -11   -0.10    5.10
  -8   0  11   13.80    6.60
   8   0 -11   14.20    5.20
  -6   0  11    1.10    4.90
  -6   0  11    1.70    4.60
   4   0 -11    3.30    4.60
  -4   0  11   -2.30    4.20
  -4   0  11    3.00    4.10
   4   0 -11    0.80    3.80
   2   0 -11    1.10    3.00
   2   0 -11    4.70    5.30
  -2   0  11    0.10    4.40
  -2   0  11   -3.90    4.30
   0   0 -11   -1.60    3.40
   0   0 -11    3.40    4.50
   0   0  11    3.90    4.80
   0   0  11    2.70    4.40
  -2   0 -11   -2.90    4.80
   2   0  11   -2.90    3.90
  -2   0 -11    1.70    5.00
  -2   0 -11    0.80    3.80
   2   0  11    2.50    4.10
   4   0  11    7.70    5.10
  -4   0 -11    3.50    4.60
  -4   0 -11    3.60    3.80
   4   0  11   -9.60    4.20
  -4   0 -11   -2.50    5.60
   6   0  11   -1.10    6.70
  -6   0 -11    3.20    4.30
   6   0  11    1.90    5.40
  -6   0 -11    5.80    6.60
   6   0  11   -5.30    4.30
   8   0  11   13.00    6.40
   8   0  11   14.30    5.60
  -8   0 -11    3.70    4.60
 -10   0 -11   10.20    5.70
  10   0  11   -6.60    6.90
  10   0  11   -2.00    5.60
 -12   0 -11   13.40    7.30
 -15  -1  11   -1.40   11.10
 -15  -1  11   -8.80   10.20
  15  -1 -11   -0.40    9.90
 -15  -1  11   10.20    8.10
 -15  -1  11    5.40   10.80
  15   1 -11   14.60    9.90
 -15   1  11   -1.90   12.80
  15   1 -11    2.50   10.50
 -15   1  11   25.20   11.10
 -15   1  11   24.60   11.70
 -15   1  11    8.80    8.60
 -13  -1  11   10.50   10.30
 -13  -1  11   -9.40    8.20
 -13  -1  11    5.70    9.20
  13  -1 -11  -10.20    7.60
 -13   1  11   11.20    6.80
  13   1 -11    8.60    8.00
 -13   1  11   -0.40    8.90
 -13   1  11    6.20   10.60
 -13   1  11   -6.30    8.80
 -11  -1  11  184.68   15.00
  11  -1 -11  213.98   13.60
 -11  -1  11  190.68   16.60
 -11   1  11  198.08   12.80
 -11   1  11  190.68   15.60
 -11   1  11  136.19   16.20
 -11   1  11  210.48   16.00
  11   1 -11  215.48   13.40
   9  -1 -11  184.88   12.20
  -9  -1  11  197.48   15.00
  -9  -1  11  228.68   14.80
  -9   1  11  210.78   14.30
   9   1 -11  195.38   11.90
  -9   1  11  180.08   15.40
   7  -1 -11   31.20    5.80
  -7  -1  11    5.10    5.00
  -7  -1  11   16.30    6.10
  -7   1  11   25.20    6.70
   7   1 -11   22.80    5.30
  -7   1  11   10.20    6.10
   5  -1 -11  201.08   12.60
   5  -1 -11  194.38   10.80
  -5  -1  11  212.08   12.80
  -5  -1  11  200.78   12.00
  -5   1  11  216.08   12.30
  -5   1  11  208.98   12.90
   5   1 -11  208.58   10.90
   3  -1 -11  601.34   19.30
  -3  -1  11  607.94   20.60
   3  -1 -11  616.54   20.90
  -3  -1  11  613.94   21.50
   3   1 -11  595.84   19.30
   3   1 -11  579.34   21.50
  -3   1  11  591.84   20.90
  -3   1  11  604.74   20.30
   1  -1 -11   34.10    5.70
   1  -1 -11   13.90    5.50
  -1  -1  11   29.80    5.90
   1  -1 -11   31.00    5.10
  -1  -1  11   42.40    7.10
  -1   1  11   35.20    5.90
   1   1 -11   29.30    4.90
  -1   1  11   18.40    5.10
   1   1 -11   31.60    6.00
  -1  -1 -11  674.13   20.90
   1  -1  11  696.33   22.20
  -1  -1 -11  688.63   22.40
  -1  -1 -11  671.73   22.00
   1  -1  11  697.53   22.80
  -1   1 -11  675.83   22.60
  -1   1 -11  709.83   21.40
   1   1  11  674.53   21.60
   1   1  11  661.23   22.50
  -3  -1 -11    4.40    3.90
   3  -1  11   -0.30    4.40
  -3  -1 -11   -4.00    5.10
   3  -1  11    3.70    4.40
  -3  -1 -11   -6.60    4.30
  -3   1 -11    5.80    3.70
   3   1  11    4.80    4.20
  -3   1 -11    7.10    5.10
   3   1  11   -0.50    4.60
  -5  -1 -11   10.90    5.30
   5  -1  11   16.70    6.00
   5  -1  11   16.10    5.50
  -5  -1 -11    9.40    4.40
  -5  -1 -11   13.60    5.80
  -5   1 -11   15.00    4.50
   5   1  11   11.10    5.40
   5   1  11    6.50    5.10
   5   1  11   13.40    5.00
  -5   1 -11    1.00    5.60
   7  -1  11   97.79   11.70
  -7  -1 -11  109.59    9.10
   7  -1  11  105.49   11.20
   7   1  11   92.69    9.60
  -7   1 -11   99.19    9.20
   7   1  11  108.99   11.30
  -9  -1 -11    8.30    5.10
   9  -1  11   -1.80    5.30
   9  -1  11    3.10    6.60
   9   1  11    2.40    5.60
  -9   1 -11   -5.90    5.10
   9   1  11   10.20    7.00
 -11  -1 -11  108.99   11.50
 -11   1 -11   96.09   11.50
 -13  -1 -11  108.59   13.50
 -13   1 -11  115.69   14.20
 -14  -2  11   93.89   12.70
  14  -2 -11  103.69   11.80
 -14  -2  11   86.29   13.20
 -14  -2  11  106.39   13.80
 -14   2  11   78.19   14.40
  14   2 -11   71.09   12.60
  14   2 -11   82.79   11.00
 -14   2  11   81.89   11.00
 -14   2  11   71.39   12.70
 -14   2  11  114.79   15.10
 -12  -2  11   26.30    8.80
  12  -2 -11   40.90    8.30
 -12  -2  11   32.10   10.40
 -12   2  11   31.80    9.50
  12   2 -11   36.40    8.10
 -12   2  11   17.40    7.30
 -12   2  11   14.40    8.90
 -12   2  11   28.00   10.90
 -10  -2  11  247.18   16.90
 -10  -2  11  261.27   15.60
  10  -2 -11  278.07   14.60
 -10   2  11  245.28   16.00
  10   2 -11  232.88   13.30
 -10   2  11  280.07   18.60
 -10   2  11  210.18   13.40
  -8  -2  11  767.42   25.50
  -8  -2  11  751.32   26.20
   8  -2 -11  733.23   23.80
  -8   2  11  755.82   24.40
   8   2 -11  774.22   23.50
  -8   2  11  726.03   25.50
  -8   2  11  757.52   27.00
  -6  -2  11  269.17   13.90
  -6  -2  11  253.37   14.30
   6  -2 -11  249.97   12.30
   6  -2 -11  248.88   14.30
   6   2 -11  257.67   12.60
  -6   2  11  246.88   14.50
  -6   2  11  255.47   16.60
  -6   2  11  257.37   13.90
  -4  -2  11   12.00    4.90
   4  -2 -11    8.80    4.00
  -4  -2  11   16.90    5.20
   4  -2 -11   15.40    4.90
  -4   2  11   15.10    4.50
   4   2 -11   12.90    4.30
  -4   2  11   16.40    5.20
  -4   2  11   23.10    5.90
  -2  -2  11 1408.26   37.50
   2  -2 -11 1390.86   37.70
  -2  -2  11 1464.65   38.80
   2  -2 -11 1388.96   37.10
   2  -2 -11 1410.76   36.20
  -2   2  11 1394.06   37.60
   2   2 -11 1416.16   36.30
  -2   2  11 1408.76   37.60
  -2   2  11 1427.96   37.00
   0  -2 -11  789.82   24.90
   0  -2 -11  886.11   26.00
   0  -2  11  902.51   26.20
   0  -2 -11  834.22   24.20
   0  -2  11  814.62   26.10
   0   2  11  858.71   25.10
   0   2 -11  813.62   26.20
   0   2 -11  851.21   24.60
   0   2  11  817.02   25.40
   0   2  11  870.11   28.10
   2  -2  11   10.90    4.60
   2  -2  11   12.80    5.20
  -2  -2 -11   27.40    5.60
  -2  -2 -11    3.30    3.80
  -2  -2 -11    6.40    4.40
  -2   2 -11    5.70    4.00
   2   2  11    9.10    5.10
   2   2  11   12.00    5.00
   2   2  11   10.10    4.80
  -2   2 -11   11.90    5.10
   4  -2  11  117.19   10.80
  -4  -2 -11  133.89   10.40
  -4  -2 -11  106.99    8.40
   4  -2  11  141.49   10.70
   4   2  11  122.39   10.20
  -4   2 -11  118.39   11.20
   4   2  11  108.79    9.50
  -4   2 -11  109.29   10.40
   4   2  11  125.09    9.90
   6  -2  11   48.00    7.80
  -6  -2 -11   60.59    7.40
   6  -2  11   43.80    7.20
   6   2  11   67.89    8.70
  -6   2 -11   52.69    6.90
   6   2  11   60.69    7.70
  -8  -2 -11  676.83   21.90
   8  -2  11  695.33   24.90
   8  -2  11  719.73   24.30
   8   2  11  684.43   22.60
  -8   2 -11  685.43   22.90
   8   2  11  722.03   23.40
  10  -2  11  153.08   11.40
 -10  -2 -11  150.58   11.50
  10  -2  11  119.19   13.90
 -10   2 -11  126.29   11.90
  10   2  11  118.79   11.80
 -12  -2 -11   38.80    8.10
 -12   2 -11   22.90    8.30
  13  -3 -11  657.93   25.30
  13  -3 -11  620.04   24.70
 -13  -3  11  640.64   26.20
 -13  -3  11  637.94   28.50
 -13  -3  11  702.13   28.20
  13   3 -11  627.14   22.90
 -13   3  11  607.24   27.60
 -13   3  11  603.64   27.20
  13   3 -11  595.54   27.10
 -13   3  11  659.23   24.30
 -13   3  11  626.44   30.60
 -11  -3  11  502.45   22.10
  11  -3 -11  547.35   21.10
 -11  -3  11  551.84   24.20
  11   3 -11  538.45   19.90
 -11   3  11  502.15   23.00
 -11   3  11  526.05   25.40
 -11   3  11  512.55   20.70
 -11   3  11  496.15   23.00
   9  -3 -11    5.60    5.30
  -9  -3  11   -4.30    6.00
  -9  -3  11   -0.70    6.00
   9   3 -11    9.60    5.50
  -9   3  11   13.10    6.00
  -9   3  11   -3.10    7.00
  -7  -3  11  355.16   16.30
   7  -3 -11  375.26   21.90
  -7  -3  11  350.76   17.10
   7  -3 -11  355.56   15.00
  -7   3  11  364.96   16.00
  -7   3  11  347.17   17.20
  -7   3  11  348.27   18.20
  -5  -3  11  134.99   11.20
   5  -3 -11  137.39   11.30
  -5  -3  11  126.99   10.30
   5  -3 -11  133.99   11.80
  -5   3  11  122.39   11.40
   5   3 -11  125.39    9.30
  -5   3  11  120.39   11.60
  -5   3  11  115.39   10.80
   3  -3 -11 1305.27   35.50
   3  -3 -11 1287.77   34.90
  -3  -3  11 1275.37   35.40
  -3  -3  11 1355.16   36.80
   3  -3 -11 1359.06   34.40
  -3   3  11 1304.97   35.90
  -3   3  11 1290.97   35.70
  -3   3  11 1281.47   35.00
   3   3 -11 1265.67   33.90
  -1  -3  11  132.29   10.90
  -1  -3  11  145.29   10.40
   1  -3 -11  135.19    8.80
   1  -3 -11  132.09   10.40
   1  -3 -11  132.99   10.30
  -1   3  11  137.99   10.00
  -1   3  11  139.29   10.30
  -1   3  11  144.49   10.50
  -1   3  11  154.18   11.40
   1   3 -11  144.79    9.50
  -1  -3 -11  386.56   14.50
   1  -3  11  396.06   16.20
  -1  -3 -11  373.26   15.40
  -1  -3 -11  389.46   16.10
   1  -3  11  372.66   16.40
   1   3  11  400.96   16.30
   1   3  11  379.26   15.40
  -1   3 -11  391.46   15.10
   1   3  11  406.86   15.80
  -3  -3 -11 1039.50   29.50
  -3  -3 -11  998.50   28.90
   3  -3  11 1073.09   30.30
  -3  -3 -11 1056.49   28.50
   3  -3  11 1082.09   31.00
  -3   3 -11 1066.79   32.40
   3   3  11 1033.60   28.80
   3   3  11 1059.69   30.20
   3   3  11 1026.40   29.10
  -3   3 -11  905.51   31.30
   5  -3  11  615.34   22.00
  -5  -3 -11  648.44   20.10
   5  -3  11  653.03   23.00
   5   3  11  647.34   20.90
   5   3  11  622.34   21.40
  -5   3 -11  626.74   20.80
  -5   3 -11  600.64   23.00
   7  -3  11   48.20    8.10
   7  -3  11   38.10    7.90
   7   3  11   39.40    7.30
  -7   3 -11   35.40    6.60
   7   3  11   50.89    7.30
  -9  -3 -11  339.57   14.90
   9  -3  11  349.67   18.10
  -9   3 -11  341.97   16.30
   9   3  11  327.17   15.80
 -11  -3 -11  547.75   20.10
  11  -3  11  505.05   23.60
 -11   3 -11  526.65   21.00
 -13  -3 -11  181.48   14.90
 -13   3 -11  222.48   16.70
  14  -4 -11  394.06   21.50
 -14  -4  11  385.16   24.90
 -14  -4  11  446.86   24.90
 -14  -4  11  380.56   22.70
  14   4 -11  383.86   24.80
 -14   4  11  419.96   24.90
 -14   4  11  473.05   27.70
 -14   4  11  425.76   21.30
  12  -4 -11  166.08   14.70
 -12  -4  11  150.68   15.30
 -12  -4  11  177.88   17.90
  12  -4 -11  158.08   16.30
  12   4 -11  163.78   13.60
  12   4 -11  142.79   16.50
 -12   4  11  141.39   17.60
 -12   4  11  164.58   16.90
 -12   4  11  176.88   20.70
 -12   4  11  131.79   13.70
  10  -4 -11  795.32   26.40
 -10  -4  11  797.12   27.50
 -10  -4  11  817.92   29.20
  10   4 -11  813.22   24.80
 -10   4  11  809.22   30.60
 -10   4  11  815.32   29.20
 -10   4  11  827.72   29.10
 -10   4  11  795.82   26.80
  -8  -4  11  728.13   25.80
   8  -4 -11  722.33   23.70
  -8  -4  11  722.83   24.70
  -8   4  11  727.93   27.10
  -8   4  11  722.73   25.40
  -8   4  11  669.03   23.90
  -6  -4  11  536.35   21.10
  -6  -4  11  542.95   20.30
   6  -4 -11  557.74   19.40
   6   4 -11  615.24   19.20
  -6   4  11  538.45   20.30
  -6   4  11  521.95   21.40
  -6   4  11  524.35   20.80
   4  -4 -11  122.49   13.80
  -4  -4  11  141.99   11.40
   4  -4 -11  122.09   10.70
  -4  -4  11  107.99   14.70
   4   4 -11  155.18   10.00
  -4   4  11  116.09   11.70
  -4   4  11  139.89   11.00
  -4   4  11  125.59   10.40
   2  -4 -11  340.77   13.60
   2  -4 -11  332.27   14.60
  -2  -4  11  334.77   15.70
  -2  -4  11  319.27   14.80
   2  -4 -11  338.97   14.60
   2   4 -11  331.77   13.80
  -2   4  11  308.07   12.80
  -2   4  11  346.87   15.30
  -2   4  11  355.56   14.90
   0  -4 -11 1038.10   29.90
   0  -4 -11 1051.49   28.30
   0  -4  11 1056.09   30.10
   0  -4  11 1028.50   30.60
   0  -4 -11 1034.70   29.00
   0   4  11 1045.80   29.30
   0   4 -11 1026.50   28.70
   0   4  11 1018.10   25.80
   0   4  11  979.90   30.10
   0   4  11 1008.80   28.70
   2  -4  11 1237.88   35.00
  -2  -4 -11 1258.07   33.10
  -2  -4 -11 1203.28   33.20
   2  -4  11 1215.68   37.80
  -2  -4 -11 1276.37   32.40
   2  -4  11 1204.18   34.20
   2   4  11 1214.08   32.60
   2   4  11 1266.27   33.10
   2   4  11 1244.28   34.50
  -2   4 -11 1162.88   35.30
   4  -4  11   16.00    6.70
   4  -4  11   27.00    6.90
  -4  -4 -11   32.10    5.60
   4  -4  11   29.10    6.20
   4   4  11   31.00    6.10
   4   4  11   34.40    6.80
  -4   4 -11   21.80    5.30
   6  -4  11  965.20   33.50
   6  -4  11  979.40   29.90
   6  -4  11 1024.90   31.40
  -6  -4 -11 1015.80   27.60
  -6   4 -11  936.61   28.50
   6   4  11  979.40   29.40
   6   4  11  968.60   28.20
   8  -4  11  927.41   30.50
  -8  -4 -11  926.51   26.40
   8  -4  11  913.71   33.40
   8  -4  11  841.12   36.20
  -8   4 -11  930.31   28.20
   8   4  11  913.61   28.00
  10  -4  11  320.17   23.20
 -10  -4 -11  391.36   16.10
  10  -4  11  330.27   19.50
  10   4  11  321.07   16.60
 -10   4 -11  325.77   17.00
 -12  -4 -11  108.29   12.60
  12  -4  11   82.59   13.60
 -12   4 -11   65.09   10.10
  13  -5 -11 1484.05   44.50
 -13  -5  11 1515.05   44.70
  13  -5 -11 1478.45   43.40
 -13  -5  11 1507.35   46.80
 -13   5  11 1576.64   43.60
 -13   5  11 1475.55   46.90
  13   5 -11 1510.35   46.60
 -13   5  11 1560.84   47.40
 -11  -5  11  161.58   14.60
  11  -5 -11  153.68   13.80
  11  -5 -11  168.78   16.30
 -11  -5  11  152.48   16.50
  11   5 -11  127.89   14.10
 -11   5  11  169.28   14.10
 -11   5  11  157.58   16.70
 -11   5  11  195.58   17.90
  11   5 -11  156.88   16.10
   9  -5 -11  112.49   11.20
  -9  -5  11   98.29   12.70
  -9  -5  11   87.49   11.50
  -9   5  11   92.39   12.00
  -9   5  11   94.29   12.40
   9   5 -11   90.59   10.00
  -9   5  11   83.49   10.40
  -9   5  11   81.19   10.10
   7  -5 -11  206.88   12.60
  -7  -5  11  211.38   13.60
  -7  -5  11  221.08   14.50
  -7   5  11  208.48   15.70
  -7   5  11  205.68   14.40
   7   5 -11  231.98   12.10
  -7   5  11  240.58   14.00
  -7   5  11  217.48   15.10
  -5  -5  11 1342.77   37.30
   5  -5 -11 1324.77   35.80
  -5  -5  11 1407.46   38.80
  -5   5  11 1345.27   38.40
   5   5 -11 1408.06   35.50
  -5   5  11 1320.27   37.00
  -5   5  11 1355.26   37.90
   3  -5 -11  514.95   26.80
  -3  -5  11  464.55   19.10
   3  -5 -11  461.35   18.60
  -3  -5  11  475.75   18.40
   3  -5 -11  457.25   17.70
  -3   5  11  476.55   18.80
   3   5 -11  483.75   17.00
  -3   5  11  460.85   18.00
  -3   5  11  460.55   18.60
  -3   5  11  444.46   15.80
  -1  -5  11  143.59   15.90
   1  -5 -11  159.28    9.60
  -1  -5  11  159.58   13.10
   1  -5 -11  134.89   10.60
  -1  -5  11  160.08   11.90
   1  -5 -11  161.18   10.40
  -1   5  11  154.58   11.10
  -1   5  11  184.28   12.00
   1   5 -11  158.08   10.00
  -1   5  11  158.88    9.00
  -1   5  11  147.99   10.90
   1  -5  11   64.39    8.30
  -1  -5 -11   48.80    6.60
  -1  -5 -11   48.70    6.00
   1  -5  11   58.49    7.90
  -1  -5 -11   61.99    7.70
   1  -5  11   50.29    8.20
   1   5  11   64.09    7.40
  -1   5 -11   73.69    8.10
   1   5  11   66.89    9.20
   3  -5  11 1644.44   45.40
   3  -5  11 1667.53   43.90
   3  -5  11 1720.73   46.90
  -3  -5 -11 1615.74   40.20
  -3   5 -11 1674.83   41.90
   3   5  11 1606.94   40.30
   3   5  11 1375.46   51.99
   5  -5  11 1046.90   35.10
   5  -5  11  980.40   33.90
   5  -5  11 1029.20   31.90
  -5  -5 -11 1066.89   28.50
  -5   5 -11 1035.20   30.00
   7  -5  11   -1.80    6.30
   7  -5  11   -0.10    6.30
   7  -5  11    3.00    7.70
  -7  -5 -11   -1.00    4.90
  -7   5 -11    4.50    5.30
   9  -5  11   24.80    8.30
   9  -5  11   22.00   10.70
   9  -5  11   19.40    9.70
  -9  -5 -11   27.40    6.60
  -9   5 -11    3.00    6.60
  11  -5  11  520.45   28.80
 -11  -5 -11  542.85   20.20
  11  -5  11  534.35   26.20
 -11   5 -11  505.45   21.90
  12  -6 -11  -11.90    9.00
 -12  -6  11    0.70    9.20
  12  -6 -11    9.80    8.20
 -12  -6  11   -0.90    7.90
 -12   6  11    2.80   12.10
 -12   6  11   13.10    8.90
 -12   6  11    4.20   10.60
  12   6 -11   10.70   10.50
  10  -6 -11  637.74   25.60
  10  -6 -11  612.64   23.00
 -10  -6  11  617.14   24.10
 -10  -6  11  589.04   25.10
 -10   6  11  604.14   23.80
  10   6 -11  573.34   24.20
 -10   6  11  584.74   25.70
 -10   6  11  602.34   26.10
  10   6 -11  580.24   20.10
  -8  -6  11 1454.95   40.40
   8  -6 -11 1474.85   39.70
  -8  -6  11 1445.46   41.60
   8   6 -11 1439.66   37.00
  -8   6  11 1466.35   42.10
  -8   6  11 1416.26   40.80
  -8   6  11 1447.56   41.40
   6  -6 -11  810.32   25.50
  -6  -6  11  848.72   28.20
  -6  -6  11  814.12   26.90
  -6   6  11  847.72   27.80
   6   6 -11  791.92   24.30
  -6   6  11  866.51   28.00
  -6   6  11  846.12   27.80
  -4  -6  11  345.47   16.10
   4  -6 -11  332.77   14.30
  -4  -6  11  327.07   18.00
  -4   6  11  322.77   15.90
  -4   6  11  315.87   16.30
  -4   6  11  326.37   21.10
   4   6 -11  334.17   14.20
   2  -6 -11 1439.46   38.90
  -2  -6  11 1467.55   40.10
  -2  -6  11 1511.05   40.90
  -2   6  11 1478.75   41.00
  -2   6  11 1434.96   38.30
   2   6 -11 1499.45   38.20
   0  -6  11 1057.89   33.60
   0  -6  11 1050.19   30.90
   0  -6  11 1060.29   31.70
   0  -6 -11 1020.40   28.30
   0   6 -11 1041.70   29.70
   0   6  11 1022.50   29.20
   0   6  11 1017.60   31.70
   2  -6  11  124.59   13.70
   2  -6  11  138.29   11.60
   2  -6  11  141.49   12.40
  -2  -6 -11  131.39    9.20
  -2   6 -11  145.09   10.50
   2   6  11  147.29   12.00
   2   6  11  130.59   10.90
  -4  -6 -11   39.70    5.90
   4  -6  11   48.30    7.60
   4  -6  11   55.89    9.60
   4  -6  11   42.50    7.70
   4   6  11   38.00    7.80
  -4   6 -11   39.60    7.00
   6  -6  11  451.75   19.90
   6  -6  11  438.86   20.50
  -6  -6 -11  457.75   16.60
   6  -6  11  441.46   22.80
  -6   6 -11  442.46   18.40
   6   6  11  461.15   20.00
  -8  -6 -11 1041.00   30.20
   8  -6  11 1099.79   33.90
   8  -6  11 1014.20   34.20
   8  -6  11 1024.30   37.40
   8   6  11 1040.70   32.10
  -8   6 -11 1074.69   32.10
 -10  -6 -11  477.65   18.80
  10  -6  11  466.85   24.20
  10  -6  11  473.05   27.90
  10   6  11  480.25   21.20
 -10   6 -11  456.25   21.00
 -11  -7  11  836.52   29.60
  11  -7 -11  821.32   31.50
 -11  -7  11  856.21   31.10
  11  -7 -11  811.12   28.70
  11   7 -11  801.22   30.90
 -11   7  11  821.42   30.00
 -11   7  11  795.92   32.10
 -11   7  11  832.82   33.90
  -9  -7  11   19.00    7.80
   9  -7 -11   31.10    7.80
  -9  -7  11   15.30    7.50
   9  -7 -11   35.50    9.60
  -9   7  11   24.70    9.00
   9   7 -11   25.10    9.00
  -9   7  11   44.00    9.50
   9   7 -11   36.70    7.00
  -9   7  11   23.30   10.20
   7  -7 -11  123.19   11.30
  -7  -7  11  127.09   13.30
  -7  -7  11  123.39   11.90
  -7   7  11  132.19   14.10
   7   7 -11  105.99   10.20
  -7   7  11  100.69   11.80
   7   7 -11  119.99   11.80
  -7   7  11  104.89   13.20
  -5  -7  11  732.63   24.90
  -5  -7  11  736.83   26.30
   5  -7 -11  746.73   23.80
   5   7 -11  726.03   23.20
   5   7 -11  825.52   23.20
  -5   7  11  773.32   26.00
  -5   7  11  718.73   26.50
  -5   7  11  701.53   27.10
  -3  -7  11  820.92   26.90
  -3  -7  11  869.61   29.30
  -3  -7  11  861.11   28.30
   3  -7 -11  865.31   25.40
  -3   7  11  813.62   28.30
   3   7 -11  854.61   25.10
  -3   7  11  838.82   26.40
  -1  -7  11  133.49   12.10
   1  -7 -11  145.19   10.20
  -1  -7  11  126.29   13.70
  -1  -7  11  136.09   11.60
   1   7 -11  114.39   11.80
  -1   7  11  150.78   13.10
  -1   7  11  145.09   11.50
   1  -7  11  347.87   18.90
   1  -7  11  337.07   16.30
  -1  -7 -11  374.46   14.50
   1  -7  11  349.17   20.70
  -1   7 -11  356.06   15.40
   1   7  11  333.07   17.30
   3  -7  11  726.03   27.50
   3  -7  11  725.33   28.70
   3  -7  11  734.33   25.40
  -3  -7 -11  773.82   22.60
  -3   7 -11  766.12   24.40
   3   7  11  736.43   26.30
   5  -7  11  568.14   27.80
   5  -7  11  572.84   26.20
  -5  -7 -11  580.84   19.20
   5  -7  11  590.04   22.90
   5   7  11  580.04   22.90
  -5   7 -11  573.84   21.10
  -7  -7 -11   41.60    7.00
   7  -7  11   29.20   12.40
   7  -7  11   39.20    8.80
   7  -7  11   23.20   10.00
  -7   7 -11   43.70    8.10
   7   7  11   38.00    9.20
   9  -7  11   79.29   12.20
   9  -7  11  108.89   14.00
   9  -7  11   97.39   14.90
  -9  -7 -11   78.99    8.70
  -9   7 -11   81.39   10.50
   9   7  11   78.49   11.60
  10  -8 -11  371.96   23.30
  10  -8 -11  408.66   19.90
 -10  -8  11  420.66   20.90
 -10  -8  11  367.56   20.90
  10   8 -11  383.16   22.10
 -10   8  11  382.26   23.00
 -10   8  11  438.26   26.00
 -10   8  11  432.56   21.60
  -8  -8  11  920.71   30.20
   8  -8 -11  920.11   29.40
   8  -8 -11  918.41   33.40
  -8  -8  11  920.51   31.30
  -8   8  11  894.71   32.00
  -8   8  11  926.61   31.50
  -8   8  11  931.81   32.10
  -6  -8  11   93.59   12.80
   6  -8 -11  110.79   11.20
  -6  -8  11  111.59   12.00
   6   8 -11  123.79   10.60
  -6   8  11  115.59   13.80
  -6   8  11  105.39   13.10
   6   8 -11   92.99   11.60
  -6   8  11   89.49   11.60
  -4  -8  11   -8.10    5.30
   4  -8 -11    4.50    5.00
  -4  -8  11   -1.40    5.80
  -4  -8  11   -0.30    7.20
  -4   8  11   14.40    7.20
   4   8 -11    6.00    5.40
   4   8 -11    0.80    5.30
  -4   8  11    1.30    7.10
  -2  -8  11  479.15   19.90
  -2  -8  11  495.85   22.60
   2  -8 -11  472.75   17.50
  -2  -8  11  452.65   20.50
   2   8 -11  470.85   16.50
  -2   8  11  481.35   21.40
  -2   8  11  497.35   19.40
   0  -8  11  672.53   24.10
   0  -8  11  706.03   27.20
   0  -8 -11  592.34   26.70
   0  -8  11  678.33   24.90
   0   8  11  649.34   25.30
   0   8 -11  708.83   22.30
  -2  -8 -11  175.38   11.00
   2  -8  11  202.78   14.30
   2  -8  11  201.48   15.30
   2  -8  11  183.98   16.30
   2   8  11  189.38   14.60
  -2   8 -11  188.88   12.80
   4  -8  11    6.20    7.20
  -4  -8 -11   -3.00    4.90
   4  -8  11    3.50    6.60
   4  -8  11   -1.10    7.90
   4   8  11   -2.40    7.10
  -4   8 -11    4.80    6.60
   6  -8  11  435.86   22.20
   6  -8  11  458.95   21.70
   6  -8  11  466.15   25.10
  -6  -8 -11  469.15   17.20
   6   8  11  468.15   21.70
  -6   8 -11  494.95   20.40
   8  -8  11  998.70   34.40
   8  -8  11 1051.59   39.30
   8  -8  11 1026.20   36.20
  -8  -8 -11 1065.19   30.60
  -8   8 -11 1047.30   32.90
   8   8  11 1028.40   34.10
   9  -9 -11   53.59   12.10
   9  -9 -11   76.79   11.00
  -9  -9  11   84.69   11.00
  -9  -9  11   60.69   10.80
  -9   9  11   52.89   12.70
  -9   9  11   79.39   12.10
   7  -9 -11   78.59   10.20
   7  -9 -11   98.69   13.50
  -7  -9  11  110.89   13.00
  -7  -9  11   85.19   11.30
  -7   9  11   90.29   11.60
  -7   9  11   89.49   11.70
  -5  -9  11   -1.30    6.50
   5  -9 -11    6.30    8.50
   5  -9 -11   13.50    6.50
  -5  -9  11    3.40    7.00
  -5  -9  11   14.10    8.50
  -5   9  11   13.00    7.90
  -5   9  11   14.50    8.80
   5   9 -11   20.80    6.40
  -3  -9  11  117.69   13.50
  -3  -9  11  117.49   15.80
   3  -9 -11  121.09   10.70
  -3  -9  11  139.39   12.50
  -3   9  11  111.49   14.30
   3   9 -11  156.28   11.70
  -3   9  11  127.49   13.20
  -1  -9  11  236.98   16.30
  -1  -9  11  212.48   14.50
  -1  -9  11  220.98   17.40
   1  -9 -11  216.08   12.20
   1   9 -11  200.28   12.90
  -1   9  11  198.48   14.00
  -1   9  11  220.98   16.20
   1  -9  11  101.09   11.00
   1  -9  11  102.89   11.60
   1  -9  11   98.29   13.10
   1   9  11  110.29   11.70
  -1   9 -11  107.59   11.80
   1   9  11  107.29   14.30
   3  -9  11  226.48   16.80
   3  -9  11  202.88   15.30
   3  -9  11  215.28   19.20
  -3  -9 -11  216.48   12.10
  -3   9 -11  220.48   14.40
   3   9  11  215.38   17.00
   5  -9  11  247.98   17.30
   5  -9  11  271.27   21.70
   5  -9  11  260.07   18.90
  -5  -9 -11  243.88   13.10
   5   9  11  232.28   18.00
  -5   9 -11  224.38   16.20
   7  -9  11   -4.50    8.70
   7  -9  11    8.70    9.40
   7  -9  11   13.90   12.00
  -7   9 -11    5.30    8.40
  -8 -10  11   93.69   12.00
   8 -10 -11  119.09   15.00
  -8 -10  11   92.79   11.40
   8 -10 -11  134.19   14.50
  -8  10  11  129.59   17.10
  -8  10  11   93.49   14.30
   6 -10 -11   16.00    7.90
  -6 -10  11   29.50    8.40
  -6 -10  11   40.00   10.40
  -6 -10  11   24.20    8.70
   6 -10 -11   21.40   10.40
  -6  10  11   31.50   10.50
  -6  10  11   18.30    9.80
  -4 -10  11   84.39   13.00
   4 -10 -11   69.29    9.00
  -4 -10  11   81.49   10.30
   4 -10 -11   72.49   11.40
  -4 -10  11   62.29   10.10
  -4  10  11   72.59   10.90
  -4  10  11   65.79   10.60
  -2 -10  11   91.39   10.90
  -2 -10  11  122.29   16.60
  -2 -10  11  104.09   14.00
   2 -10 -11   89.49   10.80
  -2  10  11  104.69   13.00
   2  10 -11  107.59   11.70
  -2  10  11   73.09   10.90
   0 -10  11   -5.60    7.20
   0 -10 -11    6.20    5.80
   0 -10  11    0.90    8.90
   0 -10  11   -1.90    6.70
   0  10  11    9.40    9.00
   0  10 -11    3.00    6.70
   2 -10  11   17.60    8.60
   2 -10  11   19.50    9.80
   2 -10  11   21.00    8.10
  -2 -10 -11   18.70    6.70
   2  10  11   25.30    9.80
  -2  10 -11   20.10    7.80
   4 -10  11   24.90    9.90
   4 -10  11   27.40   11.30
   4 -10  11   31.50    9.20
  -4  10 -11   26.70    8.90
   4  10  11   23.90   10.70
   6 -10  11   25.10    9.70
   6 -10  11   41.70   13.20
   6 -10  11   27.20   10.20
  -6  10 -11   37.70   10.20
  -5 -11  11   -2.20    7.50
  -5 -11  11  -11.70   10.70
  -5 -11  11  -18.00    7.50
   5 -11 -11   11.40    8.10
   5 -11 -11    7.10   11.00
  -5  11  11    6.10   10.60
  -5  11  11    2.20   10.30
   3 -11 -11   14.30    7.50
  -3 -11  11   29.90   10.80
  -3 -11  11   12.60    8.50
   3 -11 -11   28.70   10.80
  -3 -11  11   20.00    7.90
  -3  11  11   18.20   11.50
  -1 -11  11   34.00    9.00
   1 -11 -11   41.20   11.30
  -1 -11  11   31.30   11.00
   1 -11 -11   30.20    7.40
  -1 -11  11   19.60    9.60
  -1  11  11   17.60   10.20
   1 -11  11  104.79   15.20
   1 -11  11  127.59   16.50
   1 -11  11  136.09   15.30
  -1 -11 -11  131.79   14.70
  -1 -11 -11  143.09   12.50
   1  11  11  167.38   18.30
  -1  11 -11  151.28   15.00
   3 -11  11    3.70    9.60
   3 -11  11    7.90    8.70
  -3  11 -11    3.60    8.80
   5 -11  11  240.48   26.70
   2 -12 -11    4.40   12.00
  -2 -12  11   10.00   12.00
   0 -12 -11  394.66   18.20
   0 -12  11  393.26   26.60
   0 -12 -11  400.36   24.80
 -12   0  12  639.34   27.60
 -12   0  12  648.64   24.20
  12   0 -12  622.34   24.40
 -12   0  12  646.74   27.10
 -12   0  12  644.04   30.00
 -10   0  12 1550.54   44.30
 -10   0  12 1570.34   46.30
  10   0 -12 1566.74   42.10
  -8   0  12  821.92   28.60
   8   0 -12  869.11   26.90
  -8   0  12  871.81   29.90
   6   0 -12  163.68   11.10
  -6   0  12  177.98   13.60
  -6   0  12  148.89   15.60
  -4   0  12  526.75   20.70
   4   0 -12  517.45   18.50
  -4   0  12  494.05   19.40
  -2   0  12 1298.57   36.60
   2   0 -12 1295.97   34.60
  -2   0  12 1345.77   36.10
   2   0 -12 1231.38   36.30
   0   0 -12 1158.88   31.60
   0   0  12 1166.68   32.80
   0   0  12 1135.29   33.60
   0   0 -12 1141.19   33.70
  -2   0 -12   34.20    7.10
   2   0  12   38.40    7.60
  -2   0 -12   28.90    5.50
   2   0  12   30.30    6.60
   4   0  12 1229.18   35.70
  -4   0 -12 1265.37   34.30
   4   0  12 1297.77   35.50
  -6   0 -12 1045.70   30.20
   6   0  12 1049.09   31.60
   6   0  12 1057.99   30.50
   8   0  12  813.02   27.60
  -8   0 -12  809.72   26.10
   8   0  12  845.72   26.20
 -10   0 -12   11.80    7.20
 -12   0 -12  458.65   21.30
 -13  -1  12  426.76   23.70
 -13  -1  12  386.26   23.10
  13  -1 -12  417.06   21.10
 -13  -1  12  392.96   26.70
 -13   1  12  383.06   26.70
 -13   1  12  432.66   20.40
  13   1 -12  376.46   20.40
 -13   1  12  367.56   23.50
 -13   1  12  418.96   23.70
 -11  -1  12  586.44   27.20
  11  -1 -12  634.54   23.80
 -11  -1  12  600.64   25.80
 -11   1  12  618.34   23.30
 -11   1  12  646.84   26.80
 -11   1  12  661.73   29.20
  11   1 -12  622.64   23.20
  -9  -1  12   49.00   11.30
   9  -1 -12   52.29    8.10
  -9  -1  12   43.50    9.20
   9   1 -12   45.20    7.70
  -9   1  12   39.60    9.80
  -9   1  12   37.40    7.20
  -9   1  12   47.00    9.30
   7  -1 -12 2411.36   57.99
  -7  -1  12 2483.55   61.09
  -7  -1  12 2497.85   60.09
  -7   1  12 2484.85   61.29
   7   1 -12 2332.47   57.59
  -7   1  12 2103.99   63.39
  -5  -1  12  805.52   27.10
  -5  -1  12  848.72   27.90
   5  -1 -12  833.92   25.40
  -5   1  12  862.91   27.00
  -5   1  12  834.42   27.60
   5   1 -12  807.42   25.10
  -3  -1  12    7.10    5.30
   3  -1 -12   22.60    4.80
  -3  -1  12    9.60    6.00
   3  -1 -12   28.00    7.10
  -3   1  12   19.00    6.10
  -3   1  12   17.10    5.60
   3   1 -12   11.70    4.90
  -1  -1  12   79.09    9.80
   1  -1 -12   80.79    9.10
  -1  -1  12   82.29   11.10
   1  -1 -12   82.69    8.10
  -1   1  12   69.99    8.10
   1   1 -12   92.89    8.40
   1   1 -12   90.49   11.60
  -1   1  12   75.49   10.50
   1  -1  12  586.14   21.70
  -1  -1 -12  602.24   19.70
   1  -1  12  552.84   20.60
  -1  -1 -12  550.94   20.90
  -1   1 -12  563.94   22.00
   1   1  12  581.94   20.60
  -1   1 -12  585.94   19.70
   1   1  12  562.94   21.40
  -3  -1 -12 1537.35   39.20
   3  -1  12 1481.65   40.90
   3  -1  12 1531.85   40.40
   3   1  12 1523.55   40.80
   3   1  12 1501.25   39.90
  -3   1 -12 1459.15   39.20
   3   1  12 1475.95   45.40
   5  -1  12  431.76   19.20
  -5  -1 -12  419.26   16.90
   5  -1  12  463.65   18.90
   5   1  12  406.56   17.50
   5   1  12  418.76   18.30
  -5   1 -12  435.56   17.00
   7  -1  12  106.49   11.00
  -7  -1 -12  121.79   11.00
   7  -1  12  104.69   10.90
   7   1  12  131.09   13.40
   7   1  12  122.39   11.50
  -7   1 -12  111.89   10.90
   9  -1  12 1379.76   39.80
   9  -1  12 1378.46   37.50
  -9  -1 -12 1394.46   38.10
   9   1  12 1370.46   37.60
  -9   1 -12 1445.26   38.80
 -11  -1 -12 1094.29   33.20
 -11   1 -12 1093.09   33.60
  12  -2 -12  469.95   21.30
 -12  -2  12  406.56   22.10
 -12  -2  12  427.66   25.40
 -12   2  12  409.96   26.50
  12   2 -12  403.26   20.00
 -12   2  12  404.46   22.80
 -12   2  12  416.16   20.00
 -12   2  12  391.16   23.10
 -10  -2  12  309.57   20.10
 -10  -2  12  292.07   17.70
  10  -2 -12  303.77   16.80
 -10   2  12  334.97   21.70
 -10   2  12  305.97   16.50
  10   2 -12  290.17   15.80
 -10   2  12  311.27   18.90
   8  -2 -12  184.88   12.60
  -8  -2  12  185.68   14.30
  -8   2  12  152.38   14.80
   8   2 -12  189.98   12.40
  -8   2  12  174.78   16.50
  -8   2  12  176.18   12.80
  -6  -2  12  259.07   14.90
  -6  -2  12  246.88   15.60
   6  -2 -12  263.97   13.10
  -6   2  12  262.47   15.30
  -6   2  12  272.57   14.40
  -6   2  12  276.57   16.70
   6   2 -12  258.37   13.50
  -4  -2  12  203.38   16.60
  -4  -2  12  238.38   14.80
   4  -2 -12  194.18   13.70
   4  -2 -12  223.38   12.00
   4   2 -12  251.47   12.60
  -4   2  12  222.48   14.20
  -4   2  12  224.18   12.90
  -4   2  12  222.98   13.90
  -2  -2  12 1187.28   34.70
   2  -2 -12 1143.59   31.70
   2  -2 -12 1131.99   33.50
  -2  -2  12 1201.78   33.70
  -2   2  12 1182.08   33.40
   2   2 -12 1185.88   32.10
  -2   2  12 1128.69   33.50
  -2   2  12 1165.18   32.90
   0  -2  12 1222.68   35.20
   0  -2 -12 1158.98   35.40
   0  -2 -12 1214.78   33.20
   0  -2  12 1236.68   34.40
   0   2  12 1164.28   34.00
   0   2  12 1220.18   33.70
   0   2  12 1207.08   34.00
   0   2 -12 1202.78   32.80
  -2  -2 -12   34.60    7.20
   2  -2  12   50.49    8.30
   2  -2  12   44.20    7.40
  -2  -2 -12   47.90    6.40
   2   2  12   53.29    8.30
   2   2  12   36.30    8.00
  -2   2 -12   39.30    6.40
   2   2  12   46.50    7.40
   4  -2  12  778.62   25.40
   4  -2  12  747.13   26.10
  -4  -2 -12  757.02   23.60
   4   2  12  767.72   24.80
  -4   2 -12  764.22   24.30
   6  -2  12  356.26   17.50
  -6  -2 -12  361.56   15.70
   6  -2  12  342.77   18.40
  -6   2 -12  362.86   16.30
   6   2  12  399.26   17.80
   8  -2  12   82.49   10.90
  -8  -2 -12   90.59   10.80
  -8   2 -12   91.19   11.40
   8   2  12   94.89   11.70
 -10  -2 -12   29.30    7.70
 -10   2 -12   21.30    7.50
  13  -3 -12  368.66   31.20
 -13  -3  12  442.96   26.50
  13  -3 -12  391.96   21.50
 -13  -3  12  396.86   23.60
  13   3 -12  422.56   20.80
  13   3 -12  393.56   24.00
 -13   3  12  391.56   25.10
 -13   3  12  446.86   21.30
 -13   3  12  412.96   24.90
 -13   3  12  413.56   30.50
 -11  -3  12   73.29   12.30
  11  -3 -12   79.59   10.60
 -11  -3  12   54.89   10.70
  11   3 -12   76.59    9.70
 -11   3  12   69.39   12.40
 -11   3  12   60.89   11.60
 -11   3  12   80.09   10.90
 -11   3  12   74.69   13.00
  -9  -3  12   66.49   11.00
   9  -3 -12   56.99    8.60
  -9  -3  12   64.39   10.00
  -9   3  12   63.79   10.30
  -9   3  12   76.09    9.60
  -9   3  12   63.89   11.50
   9   3 -12   58.59    8.10
   7  -3 -12  166.08   11.70
  -7  -3  12  174.78   19.50
  -7  -3  12  172.58   13.90
  -7   3  12  172.28   12.90
  -7   3  12  165.08   14.70
   7   3 -12  200.88   12.00
  -7   3  12  190.48   16.10
  -5  -3  12  931.81   28.70
  -5  -3  12  887.41   29.30
   5  -3 -12  930.51   27.20
  -5   3  12  882.41   29.30
   5   3 -12  872.71   26.50
  -5   3  12  921.61   28.90
  -5   3  12  866.41   28.10
  -3  -3  12  155.98   14.50
   3  -3 -12  197.78   11.40
  -3  -3  12  218.18   14.40
   3   3 -12  192.48   11.60
  -3   3  12  210.58   13.60
  -3   3  12  213.08   14.00
  -3   3  12  193.98   12.50
   1  -3 -12  430.46   18.30
   1  -3 -12  471.35   17.00
  -1  -3  12  448.86   18.40
  -1  -3  12  455.95   19.50
  -1   3  12  433.26   18.30
  -1   3  12  478.35   18.20
  -1   3  12  431.96   18.50
   1   3 -12  460.25   17.10
   1  -3  12  218.58   13.20
   1  -3  12  201.58   13.70
  -1  -3 -12  225.78   16.00
  -1  -3 -12  180.78   11.70
   1   3  12  182.18   12.40
   1   3  12  210.28   13.10
   1   3  12  199.98   13.20
  -1   3 -12  205.68   11.80
   3  -3  12  287.57   15.50
  -3  -3 -12  305.67   13.80
   3  -3  12  282.67   16.30
   3   3  12  294.57   14.80
   3   3  12  300.27   15.30
  -3   3 -12  290.37   14.30
   5  -3  12  460.35   20.70
  -5  -3 -12  476.25   17.80
   5  -3  12  474.05   19.90
  -5   3 -12  465.35   18.50
   5   3  12  476.55   19.00
   5   3  12  495.15   19.60
  -7  -3 -12  110.49   10.50
   7  -3  12  125.89   16.00
  -7   3 -12  124.29   11.70
   7   3  12  126.89   12.30
  -9  -3 -12  459.05   18.90
   9  -3  12  445.96   21.70
   9   3  12  387.46   22.00
  -9   3 -12  467.85   19.90
  11  -3  12  230.38   26.20
 -11  -3 -12  195.38   15.30
 -11   3 -12  209.78   16.50
  12  -4 -12  334.57   19.70
 -12  -4  12  320.97   22.40
 -12  -4  12  324.87   19.60
  12  -4 -12  318.37   21.30
  12   4 -12  322.67   18.40
 -12   4  12  295.97   24.10
  12   4 -12  310.77   22.00
 -12   4  12  323.87   22.20
 -12   4  12  305.27   19.00
  10  -4 -12  133.59   12.80
 -10  -4  12  103.99   11.80
 -10  -4  12  118.79   16.10
 -10   4  12  127.89   17.30
 -10   4  12  129.29   15.80
 -10   4  12   97.39   13.00
  10   4 -12  120.69   12.60
 -10   4  12  118.69   13.40
  -8  -4  12    7.80    6.50
  -8  -4  12   -1.70    6.70
   8  -4 -12    2.40    6.00
   8   4 -12    4.70    6.00
  -8   4  12    8.80    9.10
  -8   4  12    5.40    6.60
  -8   4  12   25.20   14.30
   6  -4 -12   70.49    8.20
  -6  -4  12   83.89   10.90
  -6  -4  12   71.69    9.60
  -6   4  12   72.29    9.70
  -6   4  12   64.39    9.90
   6   4 -12   86.89    9.80
  -6   4  12   65.59    8.60
  -4  -4  12   16.10    6.30
   4  -4 -12   17.10    5.60
  -4  -4  12   25.20    6.50
  -4   4  12   35.60    7.80
  -4   4  12   15.00    7.50
   4   4 -12   29.90    6.50
  -4   4  12   23.60    6.40
  -2  -4  12  435.96   18.60
  -2  -4  12  450.35   19.70
   2  -4 -12  431.46   16.40
  -2   4  12  430.36   18.20
  -2   4  12  417.96   18.20
   2   4 -12  423.06   16.80
   0  -4  12   43.30    7.70
   0  -4 -12   49.30    6.50
   0  -4  12   39.90    7.80
   0   4 -12   58.59    7.50
   0   4  12   58.99    8.30
   0   4  12   59.59   10.30
   0   4  12   43.40    7.80
  -2  -4 -12    0.40    4.30
   2  -4  12    1.60    5.80
   2  -4  12    9.20   10.80
  -2   4 -12    2.80    4.90
   2   4  12    4.80    5.80
   2   4  12    0.10    5.30
  -4  -4 -12   40.80    6.40
   4  -4  12   28.00    7.80
   4  -4  12   35.20    8.30
   4   4  12   34.50    7.20
   4   4  12   49.60    8.10
  -4   4 -12   53.89    7.70
   6  -4  12  217.78   15.30
   6  -4  12  211.88   16.90
  -6  -4 -12  206.68   12.40
  -6   4 -12  201.88   12.90
   6   4  12  210.68   14.60
   8  -4  12  -13.10    8.00
  -8  -4 -12   -1.80    6.00
   8   4  12   -4.20    7.60
  -8   4 -12    2.90    6.20
  10  -4  12   79.39   12.80
 -10  -4 -12  101.29   10.50
 -10   4 -12   94.09   11.00
  11  -5 -12   98.99   11.70
  11  -5 -12   94.19   12.50
 -11  -5  12   93.99   11.90
 -11  -5  12   91.39   13.50
 -11   5  12  111.69   15.00
 -11   5  12   92.09   13.90
  11   5 -12   83.09   12.70
  11   5 -12  105.99   11.10
 -11   5  12   85.29   10.90
  -9  -5  12   18.30    8.10
   9  -5 -12   15.50    7.10
  -9  -5  12    7.80    8.00
  -9   5  12   24.60    8.40
  -9   5  12   15.30    9.80
   9   5 -12   12.90    7.10
  -9   5  12    1.90    8.20
   7  -5 -12  109.19   11.40
  -7  -5  12   97.39   13.00
  -7  -5  12  119.49   12.80
  -7   5  12  108.19   13.80
  -7   5  12   93.59   11.90
   7   5 -12   85.19   10.60
   5  -5 -12   -4.70    4.80
  -5  -5  12    0.40    6.40
  -5  -5  12   -6.00    6.00
  -5   5  12    7.80    6.20
  -5   5  12   -2.50    6.90
   5   5 -12   -0.70    5.40
   3  -5 -12  134.39   10.30
  -3  -5  12  160.18   12.50
  -3  -5  12  139.79   13.30
  -3   5  12  161.18   13.40
   3   5 -12  150.38   11.10
  -3   5  12  130.69   12.20
  -1  -5  12   14.50    6.40
  -1  -5  12   10.50    6.30
   1  -5 -12   10.90    4.90
  -1   5  12   12.10    6.30
   1   5 -12    6.70    5.00
  -1   5  12    5.70    6.10
   1  -5  12   45.30    8.10
   1  -5  12   36.10    7.50
  -1  -5 -12   38.70    6.30
   1   5  12   28.10    6.90
   1   5  12   31.70    6.90
  -1   5 -12   32.10    6.50
   3  -5  12   22.10    8.40
   3  -5  12   16.00    7.10
  -3  -5 -12   26.70    5.70
   3  -5  12   26.70    7.30
   3   5  12   18.10    7.20
  -3   5 -12   32.70    6.70
   5  -5  12  184.48   16.70
  -5  -5 -12  193.58   12.00
   5  -5  12  156.98   14.00
   5  -5  12  146.19   15.50
   5   5  12  153.38   13.80
  -5   5 -12  160.48   12.50
  -7  -5 -12   29.90    6.90
   7  -5  12   19.50   10.00
   7  -5  12   37.30    9.20
   7  -5  12   52.39   10.30
   7   5  12   31.90    9.30
  -7   5 -12   31.80    7.70
   9  -5  12  227.78   21.70
  -9  -5 -12  199.88   14.00
   9  -5  12  191.18   18.90
  -9   5 -12  190.58   15.30
   9   5  12  152.98   16.40
  10  -6 -12  121.99   13.80
  10  -6 -12  125.79   17.00
 -10  -6  12   90.29   12.70
 -10  -6  12  106.59   12.40
 -10   6  12  115.39   14.90
  10   6 -12  127.09   13.70
 -10   6  12  130.79   18.10
 -10   6  12  110.89   13.20
  10   6 -12  105.69   13.20
  -8  -6  12   16.40    8.70
   8  -6 -12   13.70    7.10
  -8  -6  12   39.10    8.60
  -8   6  12   10.60   10.50
   8   6 -12   26.30    7.50
  -8   6  12   25.50    9.30
   8   6 -12   28.00    9.00
  -8   6  12   12.50    7.90
  -6  -6  12   13.80    7.00
   6  -6 -12   12.00    6.00
  -6  -6  12   16.90    6.80
  -6   6  12    7.90    7.80
  -6   6  12   22.30    7.90
  -6   6  12    6.20    7.50
   6   6 -12   20.80    6.50
  -4  -6  12  112.09   11.90
  -4  -6  12  115.19   13.40
   4  -6 -12  122.69   10.90
  -4   6  12  123.39   13.50
  -4   6  12  130.49   12.90
   4   6 -12  119.69   10.90
   2  -6 -12   43.30    6.70
  -2  -6  12   30.30    8.00
  -2  -6  12   48.50    7.90
   2   6 -12   43.10    6.90
  -2   6  12   50.09    8.40
  -2   6  12   35.60    7.80
   0  -6 -12   44.90    6.50
   0  -6  12   46.20    8.20
   0  -6  12   52.79   15.70
   0  -6  12   40.10    9.10
   0   6  12   65.29    9.70
   0   6 -12   41.70    7.10
   0   6  12   42.80    8.00
   2  -6  12  108.39   13.20
  -2  -6 -12  105.99   10.00
   2  -6  12  127.09   13.00
   2  -6  12  122.39   14.60
   2   6  12   94.19   12.90
  -2   6 -12  110.39   10.90
   4  -6  12   44.50   10.50
   4  -6  12   32.70    8.90
  -4  -6 -12   27.30    6.20
   4  -6  12   27.70    7.90
  -4   6 -12   38.10    7.60
   4   6  12   29.20    8.30
   6  -6  12  295.67   18.80
   6  -6  12  365.76   20.80
  -6  -6 -12  350.86   15.70
   6  -6  12  334.27   22.40
  -6   6 -12  299.27   17.00
   6   6  12  325.97   19.20
   8  -6  12   83.29   14.90
  -8  -6 -12   59.19    8.50
   8  -6  12   57.79   11.50
   8   6  12   68.09   11.30
  -8   6 -12   45.80    8.90
 -10  -6 -12   -4.60    7.80
  10  -6  12   -3.80   11.90
 -10   6 -12   15.00   10.60
 -11   7  12   25.00   11.90
   9  -7 -12  136.59   17.90
  -9  -7  12  116.79   14.60
  -9  -7  12   96.59   12.00
   9  -7 -12  150.58   14.10
  -9   7  12  120.49   14.80
  -9   7  12  150.38   18.10
   9   7 -12  131.59   17.20
  -9   7  12  116.99   15.80
   7  -7 -12   73.69    9.90
  -7  -7  12   79.39   10.50
  -7  -7  12   87.99   10.70
  -7   7  12  108.49   12.70
  -7   7  12   83.69   12.30
  -7   7  12  109.59   14.50
   7   7 -12   91.69    9.40
  -5  -7  12  110.99   13.90
   5  -7 -12  130.09   11.60
  -5  -7  12  104.89   13.30
  -5   7  12  142.19   14.70
  -5   7  12  129.19   15.40
  -5   7  12  138.99   14.80
   5   7 -12  107.39   11.50
  -3  -7  12   98.39   12.40
  -3  -7  12  113.19   13.90
   3  -7 -12  117.39   10.90
   3   7 -12  137.89   12.00
  -3   7  12  125.19   13.90
  -1  -7  12   59.49    8.90
   1  -7 -12   66.19    7.80
  -1  -7  12   45.70    9.80
  -1  -7  12   53.09    8.80
   1   7 -12   58.79    8.30
  -1   7  12   76.59   10.40
   1  -7  12   37.20    8.60
  -1  -7 -12   53.19    7.20
   1  -7  12   40.00    8.40
   1  -7  12   52.99   10.40
  -1   7 -12   50.69    8.10
   1   7  12   39.00    9.70
   3  -7  12  169.28   14.70
   3  -7  12  157.98   15.60
  -3  -7 -12  161.88   11.50
   3  -7  12  145.59   17.00
  -3   7 -12  157.78   13.10
   3   7  12  118.39   15.20
   5  -7  12  280.67   18.30
   5  -7  12  263.57   19.60
   5  -7  12  249.78   21.00
  -5  -7 -12  283.47   14.20
  -5   7 -12  272.77   16.80
   5   7  12  276.87   18.60
   7  -7  12   54.99   12.30
  -7  -7 -12   53.19    8.80
   7  -7  12   56.49   13.80
   7  -7  12   67.99   11.40
   7   7  12   56.29   11.20
  -7   7 -12   51.09    9.50
   9  -7  12   85.09   15.50
   9  -7  12  118.19   14.30
  -9  -7 -12  121.69   14.20
   9   7  12  112.69   14.40
  -9   7 -12  133.89   15.30
   8  -8 -12  398.76   23.90
   8  -8 -12  427.26   20.10
  -8  -8  12  429.16   22.30
  -8  -8  12  420.76   21.20
  -8   8  12  391.76   21.90
   8   8 -12  375.46   21.30
  -8   8  12  401.96   23.10
  -6  -8  12    8.10    7.40
  -6  -8  12    5.50    8.20
   6  -8 -12   10.30    7.40
   6   8 -12   14.20    7.20
  -6   8  12    1.40    8.10
  -6   8  12    3.20    9.00
   4  -8 -12  785.62   26.30
  -4  -8  12  883.11   30.70
  -4  -8  12  811.52   28.50
  -4   8  12  859.51   29.30
   4   8 -12  870.11   26.20
  -4   8  12  833.82   30.40
  -2  -8  12  235.38   15.90
  -2  -8  12  196.08   16.50
   2  -8 -12  208.68   12.90
  -2  -8  12  223.88   18.00
   2   8 -12  177.78   13.60
  -2   8  12  199.78   16.80
   0  -8  12  211.48   18.60
   0  -8  12  231.08   17.30
   0  -8 -12  230.88   12.90
   0  -8  12  213.08   15.60
   0   8  12  225.08   17.20
   0   8 -12  225.88   14.20
   2  -8  12   55.39   10.40
   2  -8  12   37.90    8.60
   2  -8  12   36.80   10.80
  -2  -8 -12   29.20    6.60
  -2   8 -12   47.80    8.40
   2   8  12   46.40   10.50
   4  -8  12  118.59   13.50
  -4  -8 -12  105.09   11.20
   4  -8  12  111.99   12.80
   4  -8  12  163.48   18.20
   4   8  12  105.99   13.50
  -4   8 -12  109.09   13.60
   6  -8  12  713.23   32.30
   6  -8  12  747.73   28.70
   6  -8  12  764.22   30.60
  -6  -8 -12  748.33   24.10
   6   8  12  682.23   28.80
  -6   8 -12  754.52   27.20
   8   8  12  627.34   27.90
  -8   8 -12  598.54   25.10
   7  -9 -12  371.26   19.20
  -7  -9  12  369.56   21.30
  -7  -9  12  345.97   20.20
   7  -9 -12  367.86   23.80
  -7   9  12  332.27   22.00
  -7   9  12  370.06   21.90
  -5  -9  12  762.42   28.90
   5  -9 -12  772.32   25.80
  -5  -9  12  709.63   26.80
   5   9 -12  640.94   30.10
  -5   9  12  726.13   29.30
  -5   9  12  720.03   28.00
  -3  -9  12  464.85   21.10
  -3  -9  12  479.45   24.80
  -3  -9  12  442.26   22.30
   3  -9 -12  451.55   19.00
  -3   9  12  398.46   22.30
  -3   9  12  484.55   21.90
   3   9 -12  467.45   19.20
  -1  -9  12   59.19   10.20
  -1  -9  12   66.69   10.10
   1  -9 -12   84.59    9.00
  -1  -9  12   69.39   12.60
  -1   9  12   85.49   10.70
  -1   9  12   93.49   12.70
   1   9 -12   89.99   10.30
  -1  -9 -12 1701.33   43.00
   1  -9  12 1674.03   50.69
   1  -9  12 1673.33   47.00
   1  -9  12 1718.93   48.50
   1   9  12 1618.54   48.90
  -1   9 -12 1707.33   44.30
   3  -9  12  661.43   26.30
  -3  -9 -12  637.04   22.00
   3  -9  12  622.84   27.70
   3  -9  12  642.84   30.10
   3   9  12  630.44   27.60
  -3   9 -12  646.54   24.50
   5  -9  12   -2.10   10.20
   5  -9  12    5.00    9.30
  -5  -9 -12    1.00    7.10
   5  -9  12   15.50   11.20
   5   9  12    0.90   10.30
  -5   9 -12   -6.10    8.80
   6 -10 -12   11.90   10.80
   6 -10 -12    7.30    8.40
  -6 -10  12    0.70    8.60
  -6  10  12    4.00   10.20
  -6  10  12    2.60   11.30
  -4 -10  12  222.38   18.90
   4 -10 -12  229.18   20.50
   4 -10 -12  237.48   16.10
  -4 -10  12  243.78   21.60
  -4 -10  12  261.57   17.70
  -4  10  12  221.98   18.90
  -4  10  12  225.88   19.50
   2 -10 -12  964.40   29.40
  -2 -10  12  918.61   36.30
  -2 -10  12  916.11   31.90
  -2 -10  12  969.30   33.80
   2  10 -12  996.10   29.10
  -2  10  12  914.81   32.80
  -2  10  12  937.81   34.70
   0 -10  12  841.52   30.30
   0 -10  12  837.72   32.10
   0 -10 -12  873.11   27.10
   0 -10  12  860.61   34.40
   0  10  12  816.82   32.80
   0  10 -12  884.91   28.00
   2 -10  12   40.90    9.90
   2 -10  12   36.40   11.60
  -2 -10 -12   41.10    8.00
   2 -10  12   37.90   11.30
  -2  10 -12   32.90    9.60
   2  10  12   18.30   10.70
   4 -10  12  671.03   30.30
   4 -10  12  662.23   27.30
   4 -10  12  634.64   31.70
  -4  10 -12  625.34   25.80
   4  10  12  607.24   29.30
  -1 -11  12   30.90   12.40
   1 -11 -12   20.90   14.20
  -1  11  12   34.90   16.80
 -12   0  13    5.20   10.70
 -12   0  13  -10.50   10.30
  12   0 -13    3.60    9.10
 -12   0  13   -1.60   12.60
 -12   0  13   -7.20    7.60
 -10   0  13   -0.40    8.80
 -10   0  13    7.20   10.80
  10   0 -13    0.00    7.00
  -8   0  13   13.40    8.80
  -8   0  13  -13.70    7.40
   8   0 -13   10.20    6.50
  -6   0  13    0.10    7.20
  -6   0  13    7.40    7.40
   6   0 -13   -3.80    5.70
   4   0 -13    6.60    5.40
  -4   0  13    9.80    6.40
  -2   0  13    9.40    6.40
  -2   0  13    3.30    6.60
   2   0 -13   -0.60    4.80
   0   0 -13    5.90    5.00
   0   0  13    6.60    7.10
   0   0  13   -8.90    5.90
   2   0  13    0.80    6.90
  -2   0 -13    5.50    5.20
   2   0  13   -4.50    6.50
   4   0  13    3.00    6.00
   4   0  13    5.90    7.10
  -4   0 -13   -1.70    5.40
  -6   0 -13    1.70    6.00
   6   0  13    3.90    7.80
   6   0  13    0.00    6.40
  -8   0 -13   -3.60    6.50
   8   0  13    9.30    7.70
 -10   0 -13    1.90    7.70
  11  -1 -13  155.58   15.50
 -11  -1  13  138.39   16.90
 -11  -1  13  150.58   15.40
  11   1 -13  165.38   15.30
 -11   1  13  162.78   15.30
 -11   1  13  170.68   19.70
 -11   1  13  139.39   17.30
  -9  -1  13    6.20    9.10
  -9  -1  13   -7.70    8.90
   9  -1 -13   15.90    7.40
  -9   1  13    5.70    6.60
  -9   1  13   16.70   11.60
   9   1 -13   26.60    7.80
  -9   1  13    7.10    9.20
   7  -1 -13   10.90    6.30
  -7  -1  13    1.60    7.70
  -7  -1  13    7.20    7.80
  -7   1  13   23.40    9.10
  -7   1  13   12.30    6.50
   7   1 -13   15.00    6.40
  -7   1  13   15.50    8.10
  -5  -1  13   43.50    9.00
  -5  -1  13   53.39    9.10
   5  -1 -13   40.20    7.20
  -5   1  13   41.20    9.10
   5   1 -13   36.00    7.00
  -5   1  13   57.29   15.40
   3  -1 -13   -0.20    4.80
  -3  -1  13   -9.00    7.30
  -3  -1  13   16.90    7.10
  -3   1  13   16.10    6.80
   3   1 -13   17.80    5.40
  -3   1  13    8.10    7.00
   1  -1 -13   22.60    6.10
  -1  -1  13   23.60    7.20
  -1  -1  13   25.20    8.20
  -1   1  13   18.10    7.00
  -1   1  13   29.00    7.30
   1   1 -13   22.10    5.70
  -1  -1 -13   87.49    9.90
   1  -1  13  115.39   12.30
   1  -1  13  104.39   13.60
   1   1  13  133.89   13.60
   1   1  13  127.39   12.90
   1   1  13  116.59   11.00
  -1   1 -13  121.59   10.30
  -3  -1 -13  248.98   13.80
   3  -1  13  260.97   15.70
   3  -1  13  242.18   16.30
  -3   1 -13  242.18   13.80
   3   1  13  255.07   15.70
   3   1  13  239.58   14.50
   5  -1  13  216.28   15.80
  -5  -1 -13  218.58   13.60
   5   1  13  192.18   15.70
   5   1  13  196.48   14.40
  -5   1 -13  211.18   13.20
  -7  -1 -13   94.19   11.70
   7  -1  13  101.79   12.30
   7  -1  13  116.89   14.80
   7   1  13  109.89   13.20
  -7   1 -13   97.29   12.20
  -9  -1 -13   12.20    7.50
   9  -1  13    3.20    8.40
   9   1  13   -3.70    8.40
  -9   1 -13   16.60    7.80
 -12  -2  13  412.56   24.20
  12  -2 -13  382.76   21.10
 -12  -2  13  365.26   27.20
 -12   2  13  417.86   24.30
 -12   2  13  406.86   30.60
 -12   2  13  375.16   20.70
 -12   2  13  367.56   25.10
  12   2 -13  361.86   21.20
  10  -2 -13   21.50    8.20
 -10  -2  13   30.50    9.90
 -10  -2  13    1.30   10.60
 -10   2  13   22.30   14.20
  10   2 -13   13.40    7.90
 -10   2  13   20.90    8.70
 -10   2  13   -0.80    9.80
  -8  -2  13   19.80    8.90
  -8  -2  13   31.30   10.10
   8  -2 -13   32.10    7.60
  -8   2  13   50.69   11.70
  -8   2  13   20.90    9.30
  -8   2  13   32.00    8.40
   8   2 -13   16.10    7.10
  -6  -2  13   54.89    8.90
   6  -2 -13   57.99    8.00
  -6  -2  13   50.09    9.10
  -6   2  13   45.90    9.30
  -6   2  13   51.69   10.20
   6   2 -13   58.49    8.10
  -6   2  13   79.39   11.10
  -4  -2  13  490.75   20.70
   4  -2 -13  512.05   19.10
  -4  -2  13  473.95   21.40
  -4   2  13  522.95   20.40
   4   2 -13  493.55   19.20
  -4   2  13  466.15   21.40
  -4   2  13  461.85   20.40
  -2  -2  13   76.19    9.40
   2  -2 -13   90.59    9.70
  -2  -2  13   90.69   10.80
  -2   2  13   93.09   10.30
  -2   2  13   77.49    9.70
  -2   2  13   84.59   10.40
   2   2 -13  104.99   10.40
   0  -2 -13  221.28   12.30
   0  -2  13  208.68   15.90
   0   2  13  201.18   16.10
   0   2 -13  186.18   12.50
   0   2  13  199.38   14.60
   0   2  13  208.78   13.60
   2  -2  13   73.99   10.80
   2  -2  13   65.89    9.20
  -2  -2 -13   59.79    7.70
   2   2  13   65.99    9.30
   2   2  13   66.19    8.80
  -2   2 -13   62.99    8.10
   4  -2  13  948.81   31.10
   4  -2  13  947.91   31.60
  -4  -2 -13  956.20   28.80
   4   2  13  989.50   30.10
   4   2  13  957.80   30.10
  -4   2 -13  930.71   29.40
  -6  -2 -13  154.68   12.50
  -6   2 -13  138.59   12.60
   6   2  13  141.49   13.40
   8  -2  13  -15.50    7.40
  -8  -2 -13    7.80    6.70
   8  -2  13  -23.60    8.90
   8   2  13   -3.00    8.20
  -8   2 -13    6.70    6.60
 -10  -2 -13   33.50    8.80
 -10   2 -13   28.70    9.10
 -11  -3  13    1.90   11.30
 -11  -3  13    2.90    9.80
  11  -3 -13    3.70    8.60
  11   3 -13    0.50    8.80
 -11   3  13   14.20   12.20
 -11   3  13   20.80    9.40
 -11   3  13   14.10   11.10
  -9  -3  13  219.28   18.10
   9  -3 -13  247.18   15.80
  -9  -3  13  190.08   18.90
   9   3 -13  225.58   15.60
  -9   3  13  240.98   16.20
  -9   3  13  249.68   19.30
  -7  -3  13  912.91   31.80
  -7  -3  13  886.51   30.30
   7  -3 -13  882.31   28.30
   7   3 -13  884.01   27.80
  -7   3  13  910.11   29.70
  -7   3  13  829.42   32.00
  -7   3  13  892.11   31.20
   5  -3 -13  533.95   19.90
  -5  -3  13  474.65   21.20
  -5   3  13  499.15   21.80
   5   3 -13  476.65   19.30
  -5   3  13  495.35   20.80
  -5   3  13  507.45   23.00
  -3  -3  13   28.50    7.70
   3  -3 -13   34.80    6.80
  -3  -3  13   27.20    8.00
  -3   3  13   30.40    7.90
   3   3 -13   29.60    6.60
  -3   3  13   28.20    8.60
  -3   3  13   21.30    6.90
   1  -3 -13  884.01   27.00
  -1  -3  13  881.11   28.90
  -1  -3  13  925.21   30.60
  -1   3  13  853.01   28.10
  -1   3  13  872.41   28.80
   1   3 -13  886.21   27.20
   1  -3  13  464.15   21.40
   1  -3  13  477.65   20.80
  -1  -3 -13  501.85   18.70
  -1   3 -13  468.95   18.80
   1   3  13  464.75   20.10
   1   3  13  485.25   20.20
   3  -3  13  256.97   16.10
  -3  -3 -13  265.17   14.10
   3  -3  13  276.77   17.60
  -3   3 -13  266.97   14.80
   3   3  13  268.97   16.30
   3   3  13  285.07   16.20
  -5  -3 -13    1.30    5.90
   5  -3  13   12.20    7.90
   5  -3  13   13.40    8.60
  -5   3 -13    2.20    6.20
   5   3  13    6.60    6.80
   7  -3  13  257.07   19.70
  -7  -3 -13  250.17   15.30
   7   3  13  239.08   16.90
  -7   3 -13  264.97   16.00
  -9  -3 -13  403.76   19.40
   9  -3  13  449.36   23.70
   9   3  13  381.86   21.50
  -9   3 -13  415.96   20.40
 -10  -4  13 1112.99   36.50
 -10  -4  13 1112.39   38.70
  10  -4 -13 1110.79   34.90
  10   4 -13 1100.99   33.50
 -10   4  13 1109.19   38.20
 -10   4  13 1125.99   38.60
 -10   4  13 1124.89   35.70
  -8  -4  13   89.19   11.40
   8  -4 -13   89.89   10.60
  -8  -4  13   96.59   12.70
   8   4 -13   93.99   10.30
  -8   4  13   96.19   11.80
  -8   4  13   94.19   13.00
   6  -4 -13  500.85   20.70
  -6  -4  13  519.35   22.40
  -6  -4  13  514.65   23.20
  -6   4  13  524.25   22.10
   6   4 -13  625.54   21.30
  -6   4  13  506.25   22.90
  -4  -4  13 1087.19   34.20
  -4  -4  13 1072.69   35.10
   4  -4 -13 1123.09   32.30
  -4   4  13 1112.89   34.20
  -4   4  13 1124.39   34.20
   4   4 -13 1139.79   32.30
  -2  -4  13  769.62   28.10
  -2  -4  13  793.72   27.00
   2  -4 -13  730.43   24.20
  -2   4  13  764.62   26.50
   2   4 -13  748.13   24.60
  -2   4  13  754.02   26.10
   0  -4 -13    4.00    5.40
   0  -4  13   -3.40    6.20
   0  -4  13    1.80    7.20
   0   4  13   -3.20    6.80
   0   4 -13   13.10    6.00
   0   4  13    1.10    6.10
   2  -4  13  383.86   20.10
   2  -4  13  404.06   19.20
  -2  -4 -13  359.36   16.40
   2   4  13  343.67   18.30
  -2   4 -13  362.06   17.20
   2   4  13  377.26   18.60
   4  -4  13  259.07   17.30
  -4  -4 -13  260.27   14.20
   4  -4  13  284.47   19.20
   4   4  13  274.97   16.80
  -4   4 -13  268.97   15.80
   6  -4  13  716.43   27.80
  -6  -4 -13  766.42   25.10
   6   4  13  728.93   27.20
  -6   4 -13  739.13   26.00
  -8  -4 -13  272.27   16.40
   8  -4  13  310.47   21.10
   8   4  13  298.87   19.60
  -8   4 -13  295.07   17.30
  -9  -5  13  948.91   34.30
  -9  -5  13  957.80   33.30
   9  -5 -13  954.00   31.40
  -9   5  13  951.10   34.80
   9   5 -13  917.41   29.70
  -9   5  13  992.00   35.60
  -9   5  13  924.61   32.40
  -7  -5  13  720.93   28.40
   7  -5 -13  769.12   26.10
  -7  -5  13  721.43   27.60
  -7   5  13  696.73   27.00
  -7   5  13  734.93   29.10
   7   5 -13  749.13   24.90
  -5  -5  13  556.24   22.90
  -5  -5  13  543.65   24.30
   5  -5 -13  509.25   20.50
  -5   5  13  545.95   23.00
   5   5 -13  531.25   20.50
  -5   5  13  542.55   23.30
  -3  -5  13   16.20    7.90
   3  -5 -13   35.50    7.10
  -3  -5  13   16.80    7.40
   3   5 -13   34.80    7.40
  -3   5  13   26.40    7.80
  -3   5  13   31.30    8.80
   1  -5 -13 1095.19   31.40
  -1  -5  13 1100.49   34.00
  -1  -5  13 1087.99   39.10
  -1   5  13 1054.19   33.90
  -1   5  13 1089.59   32.50
   1   5 -13 1094.99   31.80
   1  -5  13 1488.15   43.60
   1  -5  13 1477.15   42.70
  -1  -5 -13 1543.55   40.00
   1   5  13 1495.95   43.00
  -1   5 -13 1509.75   40.70
   3  -5  13  169.28   16.70
   3  -5  13  152.28   15.20
  -3  -5 -13  160.58   12.40
   3   5  13  167.18   15.40
  -3   5 -13  170.38   13.90
  -5  -5 -13   -5.90    6.00
   5  -5  13   -5.80    8.50
   5  -5  13   10.90    9.30
  -5   5 -13    4.40    7.50
   5   5  13    0.70    8.10
   7  -5  13  406.16   22.60
  -7  -5 -13  394.56   18.70
   7   5  13  384.86   21.90
  -7   5 -13  411.26   20.10
 -10  -6  13  634.04   32.60
  10  -6 -13  611.14   28.20
 -10  -6  13  658.83   29.50
  10  -6 -13  602.94   29.00
 -10   6  13  633.44   31.50
 -10   6  13  587.94   26.60
  10   6 -13  593.64   28.30
 -10   6  13  627.44   30.10
  -8  -6  13   20.00    9.20
   8  -6 -13    8.30    7.70
  -8  -6  13   -7.70    8.70
   8   6 -13   -2.40    7.80
   8   6 -13   15.90    9.90
  -8   6  13   -5.00   11.20
  -8   6  13   -8.10    8.10
  -8   6  13    4.70    9.90
   6  -6 -13  262.07   15.50
  -6  -6  13  287.77   18.40
  -6  -6  13  278.07   19.00
  -6   6  13  253.67   17.60
  -6   6  13  283.47   19.10
  -6   6  13  251.47   18.70
   6   6 -13  274.67   15.90
  -4  -6  13  771.22   27.40
  -4  -6  13  778.22   29.10
   4  -6 -13  762.22   25.40
  -4   6  13  729.33   27.80
   4   6 -13  728.53   24.80
  -4   6  13  743.03   29.20
  -2  -6  13  866.51   30.90
   2  -6 -13  848.12   26.80
  -2  -6  13  864.11   29.40
  -2   6  13  833.72   29.90
   2   6 -13  832.22   26.90
   0  -6 -13  178.28   12.60
   0  -6  13  200.18   17.10
   0  -6  13  196.88   15.90
   0   6  13  212.38   16.60
   0   6 -13  174.58   13.60
   2  -6  13  258.27   17.70
  -2  -6 -13  289.67   14.90
   2  -6  13  248.88   18.90
   2   6  13  241.48   17.90
  -2   6 -13  270.37   16.00
   4  -6  13 1135.89   35.70
   4  -6  13 1110.39   39.90
  -4  -6 -13 1100.99   31.90
   4  -6  13 1118.99   36.90
  -4   6 -13 1046.00   33.10
   4   6  13 1056.79   35.50
   6  -6  13 1323.57   40.10
   6  -6  13 1303.67   41.80
   6  -6  13 1207.78   44.10
  -6  -6 -13 1270.27   35.90
  -6   6 -13 1257.57   38.00
   6   6  13 1280.37   40.20
  -8  -6 -13   17.60    8.50
   8  -6  13  -18.50    9.70
   8  -6  13   13.10   13.90
   8   6  13   -1.80   11.00
  -8   6 -13    6.10    8.90
   9  -7 -13   89.39   12.30
   9  -7 -13  115.99   15.20
  -9   7  13  115.39   14.50
  -9   7  13  120.49   15.20
   9   7 -13   86.39   13.80
   7  -7 -13  641.34   24.60
  -7  -7  13  620.94   26.20
  -7  -7  13  624.44   27.20
  -7   7  13  600.94   27.60
  -7   7  13  568.74   26.50
   7   7 -13  614.14   23.00
   7   7 -13  626.34   25.30
   5  -7 -13  226.18   14.80
  -5  -7  13  209.28   18.60
  -5  -7  13  237.28   17.50
  -5   7  13  264.77   19.10
   5   7 -13  253.87   15.70
  -5   7  13  230.98   18.40
  -3  -7  13   -1.00    7.80
  -3  -7  13   -2.40    8.20
   3  -7 -13   -2.90    6.10
   3   7 -13   -2.60    7.20
  -3   7  13    1.70    8.10
  -1  -7  13  356.76   21.30
   1  -7 -13  369.86   17.20
  -1  -7  13  360.36   20.10
   1   7 -13  378.36   17.90
  -1   7  13  397.46   21.70
  -1  -7 -13  859.01   27.10
   1  -7  13  905.31   34.70
   1  -7  13  849.41   30.70
   1  -7  13  879.81   32.10
  -1   7 -13  874.71   28.70
   1   7  13  897.31   32.00
  -3  -7 -13  358.96   17.40
   3  -7  13  380.86   24.40
   3  -7  13  381.56   22.50
   3  -7  13  369.36   20.80
  -3   7 -13  343.07   18.60
   3   7  13  365.56   22.10
   5  -7  13   80.09   14.10
   5  -7  13   56.09   12.30
   5  -7  13   78.09   12.90
  -5  -7 -13  117.79   12.80
  -5   7 -13   91.49   11.70
   5   7  13   84.09   13.10
  -7  -7 -13  501.15   21.10
   7  -7  13  563.74   47.50
   7   7  13  458.25   25.20
  -7   7 -13  484.65   23.20
  -6  -8  13  373.76   21.00
   6  -8 -13  364.26   19.30
  -6  -8  13  400.16   23.10
  -6   8  13  347.97   23.40
   6   8 -13  359.36   18.80
  -6   8  13  368.46   22.20
  -4  -8  13  619.64   27.60
   4  -8 -13  631.74   23.90
  -4  -8  13  644.14   25.80
  -4   8  13  662.03   26.60
  -4   8  13  645.84   27.80
   4   8 -13  662.73   23.80
  -2  -8  13   11.20    9.00
   2  -8 -13    0.90    7.00
  -2  -8  13    6.40    8.30
   2   8 -13    4.80    8.20
  -2   8  13   10.20    9.80
  -2   8  13    0.80    8.80
   0  -8  13   -5.40    8.20
   0  -8  13  -20.70    9.70
   0  -8 -13    1.10    6.80
   0  -8  13   17.90    9.80
   0   8  13    2.80    9.30
   0   8 -13   11.90    8.30
   2  -8  13    7.30    9.10
   2  -8  13   12.10   10.10
  -2  -8 -13   16.00    7.40
   2  -8  13   18.20   11.40
   2   8  13  -10.00    9.50
  -2   8 -13   10.10    8.50
   4  -8  13  351.96   25.70
   4  -8  13  372.26   24.30
   4  -8  13  389.66   22.60
  -4  -8 -13  403.96   18.50
   4   8  13  333.77   23.30
  -4   8 -13  371.56   20.20
   5  -9 -13  275.47   17.80
  -5  -9  13  316.47   24.10
  -5  -9  13  266.37   20.90
  -5   9  13  268.47   21.90
  -5   9  13  267.57   20.80
  -3  -9  13   57.59   11.50
  -3  -9  13   76.59   11.20
   3  -9 -13   56.79    9.20
   3   9 -13   70.79   10.70
  -3   9  13   73.99   12.40
  -3   9  13   61.09   12.10
  -1  -9  13  106.09   15.10
  -1  -9  13  105.59   14.10
  -1  -9  13  133.09   17.30
   1  -9 -13  135.79   13.40
  -1   9  13  126.69   16.70
   1   9 -13  101.99   11.90
  -1   9  13  130.99   15.90
  -1  -9 -13  125.79   13.70
   1  -9  13  125.69   16.70
   1  -9  13  112.89   14.80
   1  -9  13   88.29   12.20
   1   9  13   85.99   13.60
  -1   9 -13   86.39   11.40
   3  -9  13   70.49   13.30
   3  -9  13   67.89   12.30
   3  -9  13   43.30   13.30
  -3  -9 -13   82.39    9.90
  -3   9 -13   62.29   11.20
   3   9  13   50.29   13.00
  10   0 -14   27.20    9.30
 -10   0  14   38.60   13.80
 -10   0  14   17.20    8.90
 -10   0  14   34.90   12.00
   8   0 -14   48.20    9.30
  -8   0  14   31.10   10.60
  -8   0  14   51.49   12.30
  -6   0  14  258.97   18.70
   6   0 -14  226.58   15.20
  -6   0  14  258.67   19.40
  -4   0  14 2390.96   60.19
  -4   0  14 2293.37   61.29
   4   0 -14 2368.26   58.49
  -2   0  14  252.37   17.10
  -2   0  14  247.58   18.40
   2   0 -14  259.77   14.70
   0   0 -14  357.96   16.80
  -2   0 -14  696.93   24.50
   2   0  14  723.33   26.60
   4   0  14  229.58   15.60
  -4   0 -14  255.37   15.40
   4   0  14  225.48   17.50
   6   0  14  249.38   17.50
  -6   0 -14  289.27   17.10
  -8   0 -14   12.40    8.20
   8   0  14   13.50    9.90
   9  -1 -14 1351.76   39.30
  -9  -1  14 1324.97   42.10
  -9  -1  14 1349.07   44.30
   9   1 -14 1287.67   38.60
  -9   1  14 1339.37   39.90
  -9   1  14 1305.47   42.10
  -9   1  14 1305.07   44.30
  -7  -1  14  256.27   18.70
   7  -1 -14  266.27   16.30
  -7  -1  14  260.87   20.80
   7   1 -14  270.27   16.60
  -7   1  14  266.47   16.80
  -7   1  14  294.97   21.60
  -7   1  14  247.28   19.40
  -5  -1  14    0.90    7.90
   5  -1 -14   15.00    6.70
  -5  -1  14   -5.30    7.90
  -5   1  14    0.40    6.50
  -5   1  14    7.50    8.30
  -5   1  14    1.00    8.90
   5   1 -14    2.30    6.50
  -3  -1  14  561.64   25.00
   3  -1 -14  571.94   21.30
  -3  -1  14  555.24   23.40
   3   1 -14  583.34   21.50
  -3   1  14  549.54   22.40
  -3   1  14  557.84   25.40
  -3   1  14  555.44   23.30
  -1  -1  14 1048.30   33.00
   1  -1 -14 1019.50   30.80
  -1  -1  14 1007.50   34.20
  -1   1  14 1023.10   32.40
  -1   1  14 1020.90   32.20
   1   1 -14 1002.60   30.80
   1  -1  14  468.35   21.40
  -1  -1 -14  427.96   18.70
   1  -1  14  476.45   25.60
   1   1  14  424.66   19.80
   1   1  14  465.75   21.60
  -1   1 -14  448.86   19.00
  -3  -1 -14   80.69    9.60
   3  -1  14   85.19   11.40
  -3   1 -14   96.59   12.20
   3   1  14   96.49   13.00
   3   1  14   77.29   11.30
  -5  -1 -14  666.23   24.40
   5  -1  14  691.03   27.00
   5  -1  14  673.83   25.10
   5   1  14  646.34   25.30
  -5   1 -14  674.03   24.90
   7  -1  14 1193.08   36.50
  -7  -1 -14 1197.68   36.20
  -7   1 -14 1211.28   36.60
   7   1  14 1248.98   37.40
  10  -2 -14   61.19   11.00
 -10  -2  14   78.69   12.80
 -10  -2  14   64.89   14.30
 -10   2  14   69.59   13.90
  10   2 -14   78.19   11.40
 -10   2  14   71.49   11.60
  -8  -2  14   80.49   12.50
   8  -2 -14   71.09   10.30
  -8  -2  14   30.70   11.30
  -8   2  14   53.29   10.00
   8   2 -14   54.89    9.90
  -8   2  14   70.09   13.10
  -6  -2  14  447.96   22.10
   6  -2 -14  456.05   19.90
  -6  -2  14  461.55   24.00
  -6   2  14  474.95   21.20
  -6   2  14  522.85   24.30
   6   2 -14  404.06   19.60
  -4  -2  14  503.35   22.80
   4  -2 -14  509.75   20.40
  -4  -2  14  509.85   24.30
  -4   2  14  492.35   22.90
  -4   2  14  492.75   21.40
   4   2 -14  503.45   20.60
  -2  -2  14  175.48   15.80
  -2  -2  14  194.58   17.30
   2  -2 -14  194.38   13.40
  -2   2  14  192.48   14.60
  -2   2  14  192.28   16.60
   2   2 -14  210.08   13.60
   0  -2  14  105.39   13.20
   0  -2 -14   88.89    9.70
   0  -2  14  109.09   12.10
   0   2  14  111.09   12.70
   0   2  14  115.19   14.10
   0   2 -14  105.59   11.50
   2  -2  14  530.25   26.60
  -2  -2 -14  559.14   21.10
   2  -2  14  559.14   23.80
  -2   2 -14  519.95   21.30
   2   2  14  525.35   23.20
   2   2  14  550.94   22.80
   4  -2  14  493.35   23.40
  -4  -2 -14  487.85   20.40
  -4   2 -14  494.35   20.80
   4   2  14  486.85   22.00
   6  -2  14  101.99   13.20
  -6  -2 -14  115.99   12.10
  -6   2 -14  113.29   13.60
   6   2  14  111.59   12.70
  -8  -2 -14   -9.90    7.70
   8  -2  14    5.50    9.10
  -8   2 -14    5.80    8.30
   8   2  14    0.50    9.80
   9  -3 -14 1059.39   34.50
  -9  -3  14 1081.99   36.40
  -9  -3  14 1095.79   39.00
   9   3 -14 1081.69   34.00
  -9   3  14 1115.59   35.60
  -9   3  14 1029.80   38.10
  -7  -3  14  257.47   20.20
  -7  -3  14  272.67   20.00
   7  -3 -14  279.27   16.50
  -7   3  14  269.27   17.30
   7   3 -14  257.57   16.20
  -7   3  14  238.98   20.60
  -5  -3  14  174.08   16.00
   5  -3 -14  167.48   13.70
  -5  -3  14  150.38   16.90
  -5   3  14  192.88   15.30
   5   3 -14  154.28   13.90
  -5   3  14  153.58   17.20
  -3  -3  14   84.79   11.10
   3  -3 -14   75.69    9.40
   3   3 -14   87.09    9.70
  -3   3  14   89.59   11.10
  -3   3  14   97.39   12.90
   1  -3 -14  143.49   12.20
  -1  -3  14  156.38   17.00
  -1  -3  14  116.39   15.00
  -1   3  14  130.49   14.00
   1   3 -14  146.99   12.90
  -1   3  14  138.59   14.80
  -1  -3 -14  859.31   27.50
   1  -3  14  852.11   31.50
   1  -3  14  837.82   30.20
  -1   3 -14  893.61   28.40
   1   3  14  832.72   29.40
   1   3  14  832.82   28.80
  -3  -3 -14   28.60    7.80
   3  -3  14   22.00    9.60
   3  -3  14   50.89   15.00
  -3   3 -14   23.70    7.80
   3   3  14   13.10    8.30
   5  -3  14  424.76   23.10
  -5  -3 -14  441.46   19.60
  -5   3 -14  413.96   20.00
   5   3  14  417.96   21.30
  -7  -3 -14  748.63   26.90
   7  -3  14  729.03   30.30
   7   3  14  758.72   29.20
  -7   3 -14  741.73   27.50
  -8  -4  14   73.79   12.30
  -8  -4  14   99.39   13.30
   8  -4 -14  101.09   12.10
  -8   4  14  125.09   15.60
  -8   4  14   93.79   11.90
   8   4 -14   96.49   11.50
  -6  -4  14  261.07   19.50
  -6  -4  14  205.58   17.50
   6  -4 -14  215.08   15.70
  -6   4  14  238.28   20.90
   6   4 -14  226.38   15.70
  -6   4  14  253.07   17.50
   4  -4 -14  117.19   12.70
  -4  -4  14  118.99   13.70
  -4  -4  14  117.89   12.80
   4   4 -14  147.29   13.60
  -4   4  14  144.09   14.20
  -4   4  14  166.88   17.40
  -2  -4  14  136.89   17.40
   2  -4 -14  141.29   12.50
  -2  -4  14  135.99   15.40
  -2   4  14  153.98   14.70
   2   4 -14  130.79   13.10
  -2   4  14  127.69   16.10
   0  -4  14   28.90    9.00
   0  -4 -14   15.40    6.80
   0   4  14   21.90    8.50
   0   4 -14   18.00    7.20
   2  -4  14  500.95   25.00
  -2  -4 -14  493.85   20.60
   2  -4  14  530.55   24.50
   2   4  14  512.95   23.30
  -2   4 -14  556.44   22.00
  -4  -4 -14    9.20    7.00
   4  -4  14   -3.70    9.00
   4   4  14    0.90    8.80
  -4   4 -14   13.00    7.70
  -6  -4 -14   20.20    8.40
   6  -4  14   12.80   10.80
  -6   4 -14   -1.10    8.30
   6   4  14   15.30   10.80
  -7  -5  14    7.70    9.90
   7  -5 -14    8.90    8.00
  -7  -5  14   15.70    9.60
  -7   5  14   21.30   11.40
   7   5 -14   20.30    8.80
  -7   5  14   13.10    8.70
  -5  -5  14   12.00    9.30
  -5  -5  14    6.20    9.60
   5  -5 -14    8.40    7.40
  -5   5  14    5.90    8.30
   5   5 -14   -3.70    7.50
  -3  -5  14   22.80    9.50
  -3  -5  14   15.40    9.20
   3  -5 -14   33.20    7.30
  -3   5  14   20.50    8.60
   3   5 -14   39.60    8.60
   1  -5 -14   43.00    8.00
  -1  -5  14   46.00   10.00
  -1  -5  14   22.60   10.30
  -1   5  14   42.90    9.70
   1   5 -14   30.70    8.60
   1  -5  14    7.10    9.30
   1  -5  14    5.70    9.70
  -1  -5 -14   -6.80    6.40
  -1   5 -14  -16.70    6.60
   1   5  14   -4.00    7.90
  -3  -5 -14    9.10    7.30
   3  -5  14    9.30   10.40
   3  -5  14    8.50    9.40
   3   5  14    4.60    9.10
  -3   5 -14    1.60    7.80
   5  -5  14   30.30   11.40
  -5  -5 -14   41.80    9.00
  -5   5 -14   41.90   10.10
   5   5  14   40.40   11.40
   6  -6 -14  389.06   19.80
  -6  -6  14  409.06   21.80
  -6  -6  14  394.26   24.00
   6   6 -14  326.27   19.10
  -6   6  14  378.46   21.90
  -6   6  14  386.46   23.60
  -4  -6  14   14.10   10.10
  -4  -6  14    6.70    9.30
   4  -6 -14   12.40    7.30
  -4   6  14    9.40    8.20
   4   6 -14   16.90    8.60
   2  -6 -14    9.30    7.10
  -2  -6  14    9.70   10.20
  -2  -6  14   13.20    9.00
  -2   6  14    3.20    8.70
   2   6 -14   10.70    8.00
   0  -6  14   43.10   11.60
   0  -6 -14   38.00    8.00
   0  -6  14   32.20   10.30
   0   6  14   37.80   11.20
   0   6 -14   33.40    8.80
   2  -6  14  336.17   23.10
  -2  -6 -14  292.87   17.10
   2  -6  14  306.07   21.30
  -2   6 -14  318.97   18.10
   2   6  14  322.17   21.30
  -4  -6 -14  119.69   14.10
   4  -6  14   75.79   13.60
   4  -6  14   88.59   13.40
   4   6  14  113.49   14.50
  -4   6 -14   93.09   11.80
  -5  -7  14   60.89   11.60
  -5  -7  14   70.19   13.90
   5  -7 -14   79.29   10.70
  -5   7  14   75.49   13.50
   5   7 -14   84.09   11.10
  -5   7  14   78.79   13.50
  -3  -7  14  168.78   17.30
  -3  -7  14  169.78   19.90
   3  -7 -14  186.88   15.20
   3   7 -14  166.18   16.00
  -3   7  14  187.18   18.60
  -1  -7  14  657.23   29.40
  -1  -7  14  674.23   28.00
   1  -7 -14  617.74   23.80
  -1   7  14  638.54   28.70
   1   7 -14  662.43   25.00
   1  -7  14  139.59   15.50
   1  -7  14  162.28   20.30
  -1  -7 -14  151.18   14.10
  -1   7 -14  157.98   15.40
   1   7  14  140.29   18.50
   3  -7  14  179.28   18.50
   3  -7  14  144.39   16.20
  -3  -7 -14  163.58   15.20
  -3   7 -14  169.18   17.00
   3   7  14  178.98   20.30
  -2  -8  14  162.78   17.10
   2  -8 -14  158.28   15.50
  -2  -8  14  172.68   18.70
  -2   8  14  185.08   19.80
  -2   8  14  178.18   21.40
   2   8 -14  144.89   17.20
   0  -8  14   21.50   11.60
   0  -8 -14   23.80    8.70
   0  -8  14   13.80   10.50
   0   8  14   29.60   11.20
   0   8 -14   23.50   10.20
   8   0 -15   -4.00    8.50
  -8   0  15   -3.90    8.30
  -8   0  15   -6.30   11.60
   6   0 -15   12.70    8.30
  -6   0  15  -11.40    9.80
  -4   0  15    3.20    9.60
   4   0 -15   -9.10    7.00
   2   0 -15   16.00    7.10
  -2   0  15   -7.40    8.80
   0   0  15   -5.00    9.80
   0   0 -15   16.90    7.40
   2   0  15   -7.40    7.60
   2   0  15   -0.80    9.90
  -2   0 -15    3.70    7.40
   4   0  15    4.00    8.80
  -4   0 -15   12.50    7.90
  -6   0 -15    1.80    8.80
  -7  -1  15   19.60   12.60
   7  -1 -15   12.50    8.00
  -7  -1  15   18.30   12.20
  -7   1  15   22.20   11.70
  -7   1  15   39.40    9.40
   7   1 -15   17.70    8.70
  -5  -1  15   43.60   11.40
  -5  -1  15   80.29   14.00
   5  -1 -15   85.09   10.30
   5   1 -15   80.39   10.70
  -5   1  15   81.09   12.90
  -5   1  15   86.19   11.40
  -3  -1  15  101.59   12.60
   3  -1 -15  111.79   13.50
   3   1 -15  116.89   13.80
  -3   1  15  111.89   13.60
  -3   1  15  131.79   14.40
   1  -1 -15   14.40    7.30
  -1  -1  15   33.70   10.90
  -1   1  15   24.10    8.70
  -1   1  15   17.10    9.70
   1   1 -15   21.50    7.60
   1  -1  15    8.20   10.40
  -1  -1 -15   24.60    7.70
   1   1  15   29.50   10.80
  -1   1 -15    1.50    7.20
   1   1  15   11.80    8.70
   3  -1  15   -4.20   10.40
  -3  -1 -15   -1.10    7.30
  -3   1 -15    7.10    7.60
   3   1  15   10.70    9.40
   5  -1  15    5.90    8.90
  -5  -1 -15    7.50    8.50
  -5   1 -15    4.00    7.90
   5   1  15   20.30   10.10
   6  -2 -15  213.88   16.20
  -6  -2  15  159.98   20.60
  -6  -2  15  202.48   20.20
  -6   2  15  180.28   20.50
   6   2 -15  179.68   16.10
  -6   2  15  169.58   16.30
  -4  -2  15   32.70   10.50
  -4  -2  15   27.60   11.40
   4  -2 -15   23.40    8.30
   4   2 -15   16.70    8.40
  -4   2  15   11.00   11.00
  -4   2  15   29.80    8.50
  -2  -2  15   18.90   13.10
  -2  -2  15   29.50   10.80
   2  -2 -15   18.80    8.00
  -2   2  15   15.70   10.30
   2   2 -15   11.60    7.60
  -2   2  15   29.30    9.20
   0  -2  15  216.78   19.20
   0  -2 -15  200.98   15.20
   0   2 -15  228.38   15.90
   0   2  15  213.58   17.00
   0   2  15  189.98   24.40
  -2  -2 -15  170.48   14.90
   2  -2  15  168.88   20.30
  -2   2 -15  176.08   15.10
   2   2  15  173.88   16.70
  -4  -2 -15   81.39   10.60
   4  -2  15   70.09   13.80
   4   2  15   66.89   12.00
  -4   2 -15   66.69   10.40
   7  -3 -15   19.80    9.40
  -7  -3  15    2.60   12.20
  -7  -3  15   24.80   11.30
  -7   3  15   33.80    9.60
  -7   3  15    4.40   13.20
   7   3 -15   22.60    9.00
  -5  -3  15   31.70   10.70
   5  -3 -15   14.80    8.70
  -5  -3  15   42.30   12.10
  -5   3  15   32.80    9.40
  -5   3  15   30.60   12.10
   5   3 -15   25.60    8.90
   3  -3 -15  578.44   23.40
  -3  -3  15  643.34   29.20
  -3  -3  15  604.44   26.60
  -3   3  15  584.34   25.10
  -3   3  15  562.94   27.10
   3   3 -15  569.54   23.70
   1  -3 -15  430.96   19.90
  -1  -3  15  431.16   25.20
  -1  -3  15  428.06   24.00
   1   3 -15  445.76   20.70
  -1   3  15  442.36   22.10
   1  -3  15   81.29   12.90
  -1  -3 -15  119.69   13.60
   1   3  15  120.49   15.70
  -1   3 -15   77.99   10.80
   3  -3  15  221.68   20.50
  -3  -3 -15  203.08   16.20
   3   3  15  251.47   18.80
  -3   3 -15  218.48   17.10
  -5  -3 -15  473.05   21.80
  -5   3 -15  539.95   32.80
   5   3  15  461.55   24.30
  -6  -4  15  792.82   33.80
   6  -4 -15  813.12   29.10
  -6  -4  15  803.42   31.50
   6   4 -15  843.22   29.10
  -6   4  15  768.82   30.40
  -6   4  15  784.22   35.90
   4  -4 -15  378.16   19.50
  -4  -4  15  355.06   24.30
  -4  -4  15  370.06   22.50
  -4   4  15  337.27   20.50
   4   4 -15  365.76   19.60
  -2  -4  15   22.40   11.00
   2  -4 -15   12.40    7.90
  -2  -4  15    4.50   10.60
  -2   4  15   20.10    9.70
   2   4 -15   11.80    8.30
   0  -4 -15  409.96   19.80
   0  -4  15  438.66   26.60
   0  -4  15  434.06   24.70
   0   4  15  436.96   22.80
   0   4 -15  426.66   20.40
   2  -4  15 1548.25   46.10
  -2  -4 -15 1530.45   42.30
  -2   4 -15 1467.25   43.10
   2   4  15 1499.95   45.00
  -4  -4 -15  406.26   20.70
   4  -4  15  397.56   24.80
  -4   4 -15  396.86   22.90
   4   4  15  392.86   23.10
   5  -5 -15  360.96   20.30
  -5   5  15  384.26   27.10
   5   5 -15  354.96   20.50
  -3  -5  15 1124.89   37.90
   3  -5 -15 1136.59   35.00
  -3  -5  15 1124.49   40.20
  -3   5  15 1103.19   37.10
   3   5 -15 1138.49   35.20
   1  -5 -15  439.66   20.20
  -1  -5  15  453.95   24.20
  -1  -5  15  377.16   26.20
   1   5 -15  420.06   20.90
  -1   5  15  420.76   22.90
  -1  -5 -15   26.50    8.70
   1  -5  15   44.00   13.40
   1  -5  15   11.50   11.00
  -1   5 -15   21.50    9.10
   1   5  15   14.10   10.10
  -2   0  16  244.38   18.50
   2   0 -16  235.08   17.60
  -2   0  16  252.77   21.80
   0   0  16  817.22   30.70
   0   0 -16  815.22   29.90
   0   0  16  812.22   33.00
   3  -1 -16  642.24   34.60
  -3  -1  16  619.44   29.00
  -3   1  16  611.44   29.40
  -3   1  16  560.64   31.50
   3   1 -16  632.84   30.90
  -1  -1  16  360.76   24.50
   1  -1 -16  351.06   19.70
  -1   1  16  342.17   20.90
  -1   1  16  357.76   24.70
   1   1 -16  360.96   21.40
   0   0   0    0.00    0.00

_computing_structure_solution     'SHELXT 2014/5 (Sheldrick, 2014)'
;
_shelx_hkl_checksum              78362
loop_
_space_group_symop_operation_xyz
'x, y, z'
'-x, y, -z+1/2'
'x+1/2, y+1/2, z'
'-x+1/2, y+1/2, -z+1/2'
'-x, -y, -z'
'x, -y, z-1/2'
'-x+1/2, -y+1/2, -z'
'x+1/2, -y+1/2, z-1/2'
loop_
_atom_site_label
_atom_site_type_symbol
_atom_site_fract_x
_atom_site_fract_y
_atom_site_fract_z
_atom_site_U_iso_or_equiv
_atom_site_adp_type
_atom_site_occupancy
_atom_site_site_symmetry_order
_atom_site_calc_flag
Pr01 Pr 0.31256(2) 0.45204(2) 0.34302(2) 0.00552(4) Uani 1 1 d
S1 S 0.63584(3) 0.70243(4) 0.36238(4) 0.00535(8) Uani 1 1 d
S2 S 0.62690(3) 0.98672(4) 0.57578(4) 0.00614(8) Uani 1 1 d
S3 S 0.42194(3) 0.65239(4) 0.57949(4) 0.00650(8) Uani 1 1 d
O11 O 0.61843(10) 0.61129(12) 0.27541(13) 0.0132(3) Uani 1 1 d
O12 O 0.69251(10) 0.79722(12) 0.31739(13) 0.0139(3) Uani 1 1 d
O13 O 0.67807(10) 0.65908(12) 0.47522(12) 0.0111(3) Uani 1 1 d
O14 O 0.53353(9) 0.75083(11) 0.38327(12) 0.0093(2) Uani 1 1 d
O21 O 0.68530(10) 0.98015(12) 0.68547(13) 0.0130(3) Uani 1 1 d
O22 O 0.67560(10) 1.01881(12) 0.47151(13) 0.0139(3) Uani 1 1 d
O23 O 0.58034(10) 0.86820(11) 0.55876(12) 0.0107(3) Uani 1 1 d
O24 O 0.45805(9) 0.93196(11) 0.40466(12) 0.0080(2) Uani 1 1 d
O31 O 0.51888(10) 0.61873(14) 0.62233(14) 0.0179(3) Uani 1 1 d
O32 O 0.38654(13) 0.58525(14) 0.47799(14) 0.0225(3) Uani 1 1 d
O33 O 0.35265(10) 0.65378(13) 0.67128(13) 0.0149(3) Uani 1 1 d
O34 O 0.42461(10) 0.77906(11) 0.53887(13) 0.0122(3) Uani 1 1 d
B1 B 0.49995(14) 0.83078(17) 0.47162(18) 0.0067(3) Uani 1 1 d
loop_
_atom_site_aniso_label
_atom_site_aniso_U_11
_atom_site_aniso_U_22
_atom_site_aniso_U_33
_atom_site_aniso_U_23
_atom_site_aniso_U_13
_atom_site_aniso_U_12
Pr01 0.00576(5) 0.00621(5) 0.00459(5) 0.00024(3) 0.00044(3) -0.00038(3)
S1 0.00561(18) 0.00500(17) 0.00549(18) -0.00023(14) 0.00059(14) 0.00049(14)
S2 0.00520(18) 0.00575(17) 0.00733(19) -0.00084(14) -0.00073(14) 0.00117(14)
S3 0.00713(18) 0.00617(18) 0.00631(18) 0.00093(14) 0.00124(15) -0.00073(14)
O11 0.0122(6) 0.0121(6) 0.0149(7) -0.0081(5) -0.0015(5) 0.0029(5)
O12 0.0142(7) 0.0139(7) 0.0137(7) 0.0045(5) 0.0012(5) -0.0063(5)
O13 0.0112(6) 0.0125(6) 0.0093(6) 0.0036(5) -0.0007(5) 0.0020(5)
O14 0.0064(6) 0.0110(6) 0.0105(6) -0.0045(5) -0.0006(5) 0.0033(5)
O21 0.0119(7) 0.0123(6) 0.0137(6) -0.0030(5) -0.0071(5) 0.0017(5)
O22 0.0134(7) 0.0138(6) 0.0153(7) 0.0023(5) 0.0076(5) 0.0045(5)
O23 0.0132(6) 0.0052(6) 0.0131(6) -0.0006(5) -0.0058(5) 0.0001(5)
O24 0.0073(6) 0.0072(5) 0.0097(6) 0.0006(5) 0.0016(5) 0.0030(5)
O31 0.0094(6) 0.0259(8) 0.0187(7) 0.0075(6) 0.0022(6) 0.0072(6)
O32 0.0313(9) 0.0201(7) 0.0161(7) -0.0074(6) 0.0004(7) -0.0125(7)
O33 0.0129(7) 0.0180(7) 0.0146(7) 0.0068(5) 0.0079(5) 0.0020(5)
O34 0.0127(6) 0.0062(6) 0.0187(7) 0.0034(5) 0.0087(5) 0.0012(5)
B1 0.0066(8) 0.0056(8) 0.0080(9) 0.0001(6) 0.0006(7) 0.0004(6)
loop_
_atom_type_symbol
_atom_type_description
_atom_type_scat_dispersion_real
_atom_type_scat_dispersion_imag
_atom_type_scat_source
B B 0.0013 0.0007 'International Tables Vol C Tables 4.2.6.8 and 6.1.1.4'
O O 0.0106 0.0060 'International Tables Vol C Tables 4.2.6.8 and 6.1.1.4'
S S 0.1246 0.1234 'International Tables Vol C Tables 4.2.6.8 and 6.1.1.4'
Pr Pr -0.2180 2.8214 'International Tables Vol C Tables 4.2.6.8 and 6.1.1.4'
loop_
_geom_angle_atom_site_label_1
_geom_angle_atom_site_label_2
_geom_angle_atom_site_label_3
_geom_angle
_geom_angle_site_symmetry_1
_geom_angle_site_symmetry_3
O32 Pr01 O33 138.54(5) . 6_565
O32 Pr01 O13 78.47(5) . 5_666
O33 Pr01 O13 114.51(5) 6_565 5_666
O32 Pr01 O12 144.96(5) . 3_445
O33 Pr01 O12 73.56(5) 6_565 3_445
O13 Pr01 O12 73.15(5) 5_666 3_445
O32 Pr01 O31 75.58(6) . 5_666
O33 Pr01 O31 72.28(5) 6_565 5_666
O13 Pr01 O31 71.95(5) 5_666 5_666
O12 Pr01 O31 113.43(5) 3_445 5_666
O32 Pr01 O11 72.61(5) . 2_655
O33 Pr01 O11 80.07(5) 6_565 2_655
O13 Pr01 O11 147.62(5) 5_666 2_655
O12 Pr01 O11 138.97(5) 3_445 2_655
O31 Pr01 O11 86.81(5) 5_666 2_655
O32 Pr01 O21 120.16(5) . 8_465
O33 Pr01 O21 76.89(5) 6_565 8_465
O13 Pr01 O21 139.12(5) 5_666 8_465
O12 Pr01 O21 73.28(5) 3_445 8_465
O31 Pr01 O21 144.36(5) 5_666 8_465
O11 Pr01 O21 70.46(5) 2_655 8_465
O32 Pr01 O22 74.90(5) . 3_445
O33 Pr01 O22 145.95(5) 6_565 3_445
O13 Pr01 O22 71.43(5) 5_666 3_445
O12 Pr01 O22 76.86(5) 3_445 3_445
O31 Pr01 O22 136.53(5) 5_666 3_445
O11 Pr01 O22 113.46(5) 2_655 3_445
O21 Pr01 O22 78.80(5) 8_465 3_445
O11 S1 O12 112.32(9) . .
O11 S1 O13 112.49(8) . .
O12 S1 O13 111.86(8) . .
O11 S1 O14 104.69(8) . .
O12 S1 O14 107.06(8) . .
O13 S1 O14 107.90(8) . .
O21 S2 O22 117.13(9) . .
O21 S2 O23 105.65(8) . .
O22 S2 O23 110.06(8) . .
O21 S2 O24 107.41(8) . 5_676
O22 S2 O24 111.07(8) . 5_676
O23 S2 O24 104.68(8) . 5_676
O31 S3 O32 112.29(10) . .
O31 S3 O33 113.44(9) . .
O32 S3 O33 111.69(10) . .
O31 S3 O34 108.56(9) . .
O32 S3 O34 106.78(9) . .
O33 S3 O34 103.41(8) . .
S1 O11 Pr01 147.81(8) . 2_655
S1 O12 Pr01 152.20(9) . 3
S1 O13 Pr01 157.37(9) . 5_666
B1 O14 S1 131.70(12) . .
S2 O21 Pr01 155.74(9) . 8_566
S2 O22 Pr01 141.31(8) . 3
B1 O23 S2 129.17(12) . .
B1 O24 S2 133.27(12) . 5_676
S3 O31 Pr01 169.16(10) . 5_666
S3 O32 Pr01 167.70(11) . .
S3 O33 Pr01 140.38(9) . 6_566
B1 O34 S3 125.49(12) . .
O34 B1 O14 111.39(15) . .
O34 B1 O24 108.87(14) . .
O14 B1 O24 106.25(14) . .
O34 B1 O23 107.27(15) . .
O14 B1 O23 112.39(15) . .
O24 B1 O23 110.66(14) . .
loop_
_geom_bond_atom_site_label_1
_geom_bond_atom_site_label_2
_geom_bond_distance
_geom_bond_site_symmetry_2
Pr01 O32 2.3461(15) .
Pr01 O33 2.3808(14) 6_565
Pr01 O13 2.4118(13) 5_666
Pr01 O12 2.4332(14) 3_445
Pr01 O31 2.4592(14) 5_666
Pr01 O11 2.4915(13) 2_655
Pr01 O21 2.5326(14) 8_465
Pr01 O22 2.5614(13) 3_445
S1 O11 1.4462(14) .
S1 O12 1.4510(14) .
S1 O13 1.4516(14) .
S1 O14 1.5419(13) .
S2 O21 1.4311(15) .
S2 O22 1.4360(14) .
S2 O23 1.5154(13) .
S2 O24 1.5224(13) 5_676
S3 O31 1.4386(15) .
S3 O32 1.4394(16) .
S3 O33 1.4480(14) .
S3 O34 1.5317(13) .
O11 Pr01 2.4914(13) 2_655
O12 Pr01 2.4332(14) 3
O13 Pr01 2.4118(13) 5_666
O14 B1 1.453(2) .
O21 Pr01 2.5325(14) 8_566
O22 Pr01 2.5615(13) 3
O23 B1 1.493(2) .
O24 B1 1.485(2) .
O24 S2 1.5224(13) 5_676
O31 Pr01 2.4592(14) 5_666
O33 Pr01 2.3809(14) 6_566
O34 B1 1.448(2) .
