#------------------------------------------------------------------------------
#$Date: 2020-07-06 05:05:13 +0300 (Mon, 06 Jul 2020) $
#$Revision: 253824 $
#$URL: file:///home/coder/svn-repositories/cod/cif/7/12/64/7126431.cif $
#------------------------------------------------------------------------------
#
# This file is available in the Crystallography Open Database (COD),
# http://www.crystallography.net/
#
# All data on this site have been placed in the public domain by the
# contributors.
#
data_7126431
loop_
_publ_author_name
'Li, Wei'
'Wu, Hongping'
'Yu, Hongwei'
'Hu, Zhanggui'
'Wang, Jiyang'
'Wu, Yicheng'
_publ_section_title
;
 Ba<sub>6</sub>BO<sub>3</sub>Cl<sub>9</sub> and
 Pb<sub>6</sub>BO<sub>4</sub>Cl<sub>7</sub>: structural insights into
 ortho-borates with uncondensed BO<sub>4</sub> tetrahedra.
;
_journal_issue                   45
_journal_name_full
'Chemical communications (Cambridge, England)'
_journal_page_first              6086
_journal_page_last               6089
_journal_paper_doi               10.1039/d0cc01927e
_journal_volume                  56
_journal_year                    2020
_chemical_formula_sum            'B Ba6 Cl9 O3'
_chemical_formula_weight         1201.90
_space_group_crystal_system      monoclinic
_space_group_IT_number           14
_space_group_name_Hall           '-P 2yn'
_space_group_name_H-M_alt        'P 1 21/n 1'
_audit_creation_method           SHELXL-2018/3
_audit_update_record
;
2020-01-06 deposited with the CCDC.	2020-04-22 downloaded from the CCDC.
;
_cell_angle_alpha                90
_cell_angle_beta                 90.203(12)
_cell_angle_gamma                90
_cell_formula_units_Z            4
_cell_length_a                   8.229(2)
_cell_length_b                   12.2589(17)
_cell_length_c                   19.080(4)
_cell_measurement_reflns_used    9501
_cell_measurement_temperature    302(2)
_cell_measurement_theta_max      30.48
_cell_measurement_theta_min      2.69
_cell_volume                     1924.7(7)
_computing_cell_refinement       'Bruker SAINT'
_computing_data_collection       'Bruker APEX2'
_computing_data_reduction        'Bruker SAINT'
_computing_molecular_graphics    'Bruker SHELXTL'
_computing_publication_material  'Bruker SHELXTL'
_computing_structure_refinement  'SHELXL-2018/3 (Sheldrick, 2018)'
_computing_structure_solution    'SHELXS-97 (Sheldrick 2008)'
_diffrn_ambient_temperature      302(2)
_diffrn_measured_fraction_theta_full 0.999
_diffrn_measured_fraction_theta_max 0.998
_diffrn_measurement_device_type  'Bruker APEX-II CCD'
_diffrn_measurement_method       '\f and \w scans'
_diffrn_radiation_type           MoK\a
_diffrn_radiation_wavelength     0.71073
_diffrn_reflns_av_R_equivalents  0.0736
_diffrn_reflns_av_unetI/netI     0.0435
_diffrn_reflns_Laue_measured_fraction_full 0.999
_diffrn_reflns_Laue_measured_fraction_max 0.998
_diffrn_reflns_limit_h_max       10
_diffrn_reflns_limit_h_min       -10
_diffrn_reflns_limit_k_max       15
_diffrn_reflns_limit_k_min       -13
_diffrn_reflns_limit_l_max       22
_diffrn_reflns_limit_l_min       -24
_diffrn_reflns_number            24716
_diffrn_reflns_point_group_measured_fraction_full 0.999
_diffrn_reflns_point_group_measured_fraction_max 0.998
_diffrn_reflns_theta_full        25.242
_diffrn_reflns_theta_max         27.519
_diffrn_reflns_theta_min         2.692
_exptl_absorpt_coefficient_mu    13.322
_exptl_absorpt_correction_T_max  0.7461
_exptl_absorpt_correction_T_min  0.5337
_exptl_absorpt_correction_type   numerical
_exptl_crystal_colour            colorless
_exptl_crystal_density_diffrn    4.148
_exptl_crystal_description       bulk
_exptl_crystal_F_000             2072
_exptl_crystal_size_max          0.11
_exptl_crystal_size_mid          0.09
_exptl_crystal_size_min          0.08
_refine_diff_density_max         1.358
_refine_diff_density_min         -1.236
_refine_diff_density_rms         0.278
_refine_ls_extinction_coef       0.00036(3)
_refine_ls_extinction_expression Fc^*^=kFc[1+0.001xFc^2^\l^3^/sin(2\q)]^-1/4^
_refine_ls_extinction_method     'SHELXL-2018/3 (Sheldrick 2018)'
_refine_ls_goodness_of_fit_ref   1.273
_refine_ls_hydrogen_treatment    undef
_refine_ls_matrix_type           full
_refine_ls_number_parameters     173
_refine_ls_number_reflns         4422
_refine_ls_number_restraints     0
_refine_ls_restrained_S_all      1.273
_refine_ls_R_factor_all          0.0485
_refine_ls_R_factor_gt           0.0339
_refine_ls_shift/su_max          0.000
_refine_ls_shift/su_mean         0.000
_refine_ls_structure_factor_coef Fsqd
_refine_ls_weighting_details
'w=1/[\s^2^(Fo^2^)+11.1515P] where P=(Fo^2^+2Fc^2^)/3'
_refine_ls_weighting_scheme      calc
_refine_ls_wR_factor_gt          0.0683
_refine_ls_wR_factor_ref         0.0710
_reflns_Friedel_coverage         0.000
_reflns_number_gt                3716
_reflns_number_total             4422
_reflns_threshold_expression     'I > 2\s(I)'
_cod_data_source_file            d0cc01927e2.cif
_cod_data_source_block           bbc-last
_cod_depositor_comments
'Adding full bibliography for 7126431--7126432.cif.'
_cod_original_sg_symbol_H-M      'P 21/n'
_cod_database_code               7126431
_shelx_shelxl_version_number     2018/3
_shelx_space_group_comment
;
The symmetry employed for this shelxl refinement is uniquely defined
by the following loop, which should always be used as a source of
symmetry information in preference to the above space-group names.
They are only intended as comments.
;
_shelx_res_file
;
TITL bbc-last in P2(1)/n
    bbc-last.res
    created by SHELXL-2018/3 at 17:08:26 on 24-Nov-2019
CELL  0.71073   8.2290  12.2589  19.0800   90.000   90.203   90.000
ZERR    4       0.0023   0.0017   0.0037    0.000    0.012    0.00
LATT 1
SYMM 0.5-X, 0.5+Y, 0.5-Z
SFAC B  Ba Cl O
UNIT 4  24  36  12
L.S. 4
ACTA
BOND
FMAP 2
PLAN 20
TEMP 28.850
WGHT    0.000000   11.151501
EXTI    0.000362
FVAR       0.04125
MOLE 1
BA1   2   -0.053061    0.172995    0.508135    11.00000    0.01570    0.01602 =
         0.01626    0.00272    0.00229   -0.00021
BA2   2   -0.051686    0.174816    0.242241    11.00000    0.01653    0.01685 =
         0.01499   -0.00256   -0.00130   -0.00063
BA3   2    0.419766    0.329259    0.498132    11.00000    0.01907    0.01946 =
         0.01536   -0.00185   -0.00245   -0.00223
BA4   2    0.421422    0.330201    0.253114    11.00000    0.01971    0.01779 =
         0.01671    0.00126    0.00394   -0.00242
BA5   2    0.456204    0.038346    0.372906    11.00000    0.01523    0.01193 =
         0.01389    0.00046    0.00059    0.00085
BA6   2   -0.048580    0.456921    0.376676    11.00000    0.01532    0.01288 =
         0.01311    0.00051    0.00090    0.00214
CL1   3   -0.059956   -0.013578    0.628552    11.00000    0.02074    0.02177 =
         0.02062    0.00251   -0.00044   -0.00066
CL2   3   -0.205457    0.425056    0.521018    11.00000    0.02106    0.02755 =
         0.01906   -0.00205    0.00334   -0.00398
CL3   3   -0.150164    0.708846    0.368902    11.00000    0.02405    0.01744 =
         0.02367   -0.00012   -0.00431    0.00009
CL4   3   -0.212657    0.439205    0.230939    11.00000    0.01894    0.03718 =
         0.01656    0.00207    0.00000   -0.00581
CL5   3   -0.043965   -0.005722    0.122823    11.00000    0.02220    0.01809 =
         0.01809   -0.00119    0.00081   -0.00068
CL6   3    0.307428    0.075423    0.226703    11.00000    0.02240    0.02772 =
         0.01649   -0.00289   -0.00025    0.00777
CL7   3    0.731121    0.223497    0.373743    11.00000    0.01672    0.02037 =
         0.03113   -0.00086    0.00038   -0.00108
CL8   3    0.704830   -0.056638    0.479849    11.00000    0.02249    0.03598 =
         0.01681    0.00302    0.00122    0.00942
CL9   3    0.357050   -0.204566    0.382004    11.00000    0.02510    0.01609 =
         0.02468    0.00036    0.00513   -0.00091
B1    1    0.203895    0.275946    0.375437    11.00000    0.01355    0.01061 =
         0.02153   -0.00419    0.00516   -0.00348
O1    4    0.127617    0.298748    0.438281    11.00000    0.01600    0.01573 =
         0.01406    0.00206    0.00111    0.00021
O2    4    0.128201    0.302236    0.313104    11.00000    0.01385    0.01615 =
         0.01500   -0.00027   -0.00097   -0.00265
O3    4    0.359329    0.237110    0.375580    11.00000    0.00968    0.01452 =
         0.01720    0.00197    0.00001    0.00336
HKLF 4




REM  bbc-last in P2(1)/n
REM wR2 = 0.071030, GooF = S = 1.27262, Restrained GooF = 1.27262 for all data
REM R1 = 0.033920 for 3716 Fo > 4sig(Fo) and 0.048524 for all 4422 data
REM 173 parameters refined using 0 restraints

END

WGHT      0.0000     11.1389

REM Highest difference peak  1.358,  deepest hole -1.236,  1-sigma level  0.278
Q1    1   0.7536 -0.1598  0.4754  11.00000  0.05    1.36
Q2    1   0.0915  0.1803  0.2352  11.00000  0.05    1.29
Q3    1   0.0929  0.1808  0.5119  11.00000  0.05    1.18
Q4    1   0.5402  0.0440  0.4003  11.00000  0.05    1.16
Q5    1   0.2991  0.3220  0.4982  11.00000  0.05    1.16
Q6    1   0.3632  0.2971  0.4763  11.00000  0.05    1.15
Q7    1   0.0001  0.2153  0.2646  11.00000  0.05    1.15
Q8    1   0.4951  0.3004  0.2771  11.00000  0.05    1.13
Q9    1   0.2522  0.1776  0.2254  11.00000  0.05    1.12
Q10   1   0.5635  0.0207  0.3917  11.00000  0.05    1.09
Q11   1   0.5076  0.2984  0.5104  11.00000  0.05    1.09
Q12   1   0.0531  0.4345  0.3864  11.00000  0.05    1.07
Q13   1  -0.3437  0.3244  0.5351  11.00000  0.05    1.06
Q14   1   0.1759  0.3231  0.5239  11.00000  0.05    1.03
Q15   1   0.4060 -0.0141  0.3585  11.00000  0.05    1.02
Q16   1   0.0119  0.1960  0.5273  11.00000  0.05    1.02
Q17   1  -0.0779  0.4966  0.3406  11.00000  0.05    1.01
Q18   1   0.1997  0.1862  0.4641  11.00000  0.05    0.99
Q19   1  -0.2397  0.3346  0.2613  11.00000  0.05    0.97
Q20   1  -0.1611  0.4463  0.3770  11.00000  0.05    0.95
;
_shelx_res_checksum              43697
_shelx_hkl_file
;
   1   0   0    0.24    0.19
  -1   0   0    0.12    0.14
  -2   0   0  538.43   21.33
   2   0   0  583.16   21.65
   3   0   0    0.01    0.48
  -3   0   0    0.77    0.55
   3   0   0    0.33    0.11
  -3   0   0    0.08    0.08
  -4   0   0    7.16    2.51
   4   0   0    9.46    2.58
   4   0   0   12.20    0.66
   4   0   0    8.62    0.59
   5   0   0   -0.64    0.64
   5   0   0    0.27    0.12
   5   0   0    0.28    0.12
  -5   0   0    0.74    0.92
   6   0   0  177.12   12.77
  -6   0   0  183.91   12.85
   6   0   0  189.85    6.45
   6   0   0  187.66    6.41
  -7   0   0    0.00    1.14
   7   0   0   -0.17    0.08
   7   0   0    0.35    0.17
   8   0   0  296.00    9.92
  -8   0   0  275.86   19.94
   8   0   0  312.66   10.04
   8   0   0  260.33   20.61
  -9   0   0    0.96    2.22
   9   0   0    4.41    2.72
   9   0   0    0.44    0.18
 -10   0   0   94.09   11.40
  10   0   0   92.21   12.04
  10   0   0   98.11    3.97
  10   0   0   93.48    3.82
   1  -1   0    1.09    0.42
  -1  -1   0    0.40    0.34
   1  -1   0    0.38    0.06
  -1  -1   0    0.44    0.08
   1  -1   0    0.38    0.04
  -1   1   0    0.26    0.24
   1   1   0    0.21    0.26
   1   1   0    0.42    0.08
  -2  -1   0  287.42   13.43
  -2  -1   0  317.61    9.93
  -2   1   0  310.94   13.14
  -2   1   0  294.94    9.86
   2   1   0  341.81   14.05
   3  -1   0   19.61    0.87
   3  -1   0   20.66    0.89
  -3  -1   0   21.76    3.12
  -3  -1   0   20.68    0.96
   3   1   0   19.41    0.93
  -3   1   0   16.65    2.69
  -3   1   0   19.91    0.91
   3   1   0   21.78    3.23
  -4  -1   0  528.29   16.80
  -4  -1   0  552.78   24.31
   4  -1   0  515.35   16.64
   4  -1   0  516.44   23.43
   4  -1   0  510.73   16.67
  -4   1   0  538.79   23.64
   4   1   0  502.10   16.72
   4   1   0  504.12   16.74
  -4   1   0  514.61   16.74
   4   1   0  555.01   24.39
  -5  -1   0  127.25   10.33
   5  -1   0  109.66    3.95
   5  -1   0  121.99    9.95
   5  -1   0  108.07    3.98
   5   1   0  110.66    4.05
   5   1   0  117.42   10.11
  -5   1   0  107.24    4.27
  -5   1   0  119.66    9.86
   5   1   0  112.86    4.09
   6  -1   0  180.62   12.74
   6  -1   0  191.00    6.39
  -6  -1   0  179.79   12.95
  -6   1   0  179.64   12.69
   6   1   0  189.68    6.44
   6   1   0  169.55   12.58
   6   1   0  191.60    6.48
  -7  -1   0   -0.34    1.12
   7  -1   0    1.40    0.31
   7  -1   0    1.61    0.31
   7  -1   0    0.53    1.52
   7   1   0    1.83    0.38
   7   1   0    1.98    1.85
   7   1   0    1.50    0.35
  -7   1   0    1.39    1.49
   8  -1   0   -1.16    1.64
  -8  -1   0    0.86    2.36
   8  -1   0    2.18    0.39
   8  -1   0    1.97    0.41
   8   1   0    2.09    0.43
   8   1   0    0.94    0.28
  -8   1   0    3.86    2.11
   8   1   0    1.46    2.12
   9  -1   0   -2.96    2.64
   9  -1   0    0.71    0.24
   9  -1   0    0.49    0.22
  -9  -1   0   -3.40    2.33
   9   1   0    0.51    0.22
   9   1   0    0.46    0.26
  -9   1   0   -3.25    1.72
   9   1   0   -0.02    2.66
 -10  -1   0   21.47    6.43
  10  -1   0   31.17    1.71
  10  -1   0   30.02    8.17
  10  -1   0   28.17    1.56
  10   1   0   31.53    1.80
  10   1   0   29.96    8.21
 -10   1   0   22.59    6.11
  10   1   0   30.40    1.70
   0  -2   0    9.28    0.34
   0   2   0   10.05    0.97
   0   2   0    8.54    0.34
   0   2   0    8.87    0.35
  -1  -2   0   29.57    2.59
  -1  -2   0   27.59    1.15
   1  -2   0   32.10    1.93
  -1   2   0   32.43    2.09
  -1   2   0   28.48    0.97
   1   2   0   31.82    2.71
  -1   2   0   28.57    1.00
   1   2   0   30.14    1.10
  -2  -2   0    6.30    1.68
   2  -2   0    4.17    0.25
   2  -2   0    4.37    0.24
  -2  -2   0    4.35    0.32
   2  -2   0    5.00    1.28
   2  -2   0    4.40    0.21
  -2   2   0    4.30    0.27
   2   2   0    2.81    1.04
   2   2   0    4.79    0.33
  -2   2   0    5.23    1.38
   2   2   0    4.43    0.33
   3  -2   0  366.89   16.29
  -3  -2   0  375.16   11.81
   3  -2   0  354.78   11.59
   3  -2   0  350.15   11.53
  -3  -2   0  371.32   21.16
   3  -2   0  356.49   11.63
  -3   2   0  416.87   16.98
   3   2   0  359.13   11.78
   3   2   0  358.91   11.77
  -3   2   0  362.07   11.69
   3   2   0  353.73   19.67
   4  -2   0  103.99    3.65
  -4  -2   0  112.04    3.90
   4  -2   0   82.02    9.06
   4  -2   0  104.92    3.70
  -4  -2   0  118.20    9.18
  -4   2   0  119.37    8.58
   4   2   0  106.43    3.84
   4   2   0  107.37    3.85
  -4   2   0  107.93    3.78
   4   2   0  109.71    8.97
   5  -2   0   46.86    1.89
   5  -2   0   47.82    1.94
  -5  -2   0   48.02    6.39
   5   2   0   50.27    2.11
   5   2   0   48.30    2.11
   5   2   0   57.57    6.89
  -5   2   0   47.89    2.05
  -5   2   0   61.18    6.58
   6  -2   0   18.41    0.95
   6  -2   0   17.36    0.98
  -6  -2   0   17.12    4.02
   6   2   0   18.70    4.37
   6   2   0   19.08    1.10
  -6   2   0   17.09    4.23
   6   2   0   17.25    1.07
  -7  -2   0    3.62    2.44
   7  -2   0    7.43    0.60
   7  -2   0    6.82    0.55
   7  -2   0    5.55    2.23
   7   2   0    6.46    3.24
  -7   2   0    5.89    2.87
   7   2   0    6.28    0.62
   7   2   0    6.93    0.65
   8  -2   0    3.65    2.53
   8  -2   0    6.17    0.53
   8  -2   0    6.26    0.58
  -8  -2   0    4.29    2.57
   8   2   0   10.39    3.52
   8   2   0    5.31    0.60
  -8   2   0    4.80    2.74
   9  -2   0    2.15    2.77
  -9  -2   0    3.60    3.12
   9  -2   0    7.76    0.64
   9  -2   0    7.69    0.71
   9   2   0    8.02    0.77
   9   2   0    8.36    0.83
  -9   2   0    6.35    3.08
  10  -2   0   -3.11    3.05
  10  -2   0    0.24    0.22
 -10  -2   0    4.81    3.32
  10  -2   0    0.12    0.21
 -10   2   0    2.49    2.93
  10   2   0    0.56    0.26
  10   2   0   -0.02    0.19
   0  -3   0    0.29    0.25
   0   3   0    0.26    0.26
  -1  -3   0  936.56   31.35
   1   3   0  839.59   31.13
  -2  -3   0  132.68    7.94
   2  -3   0  118.91    3.87
   2  -3   0  125.66    6.12
  -2  -3   0  116.28    4.08
  -2   3   0  114.37    3.87
   2   3   0  115.87    4.08
  -2   3   0  116.32    3.93
  -2   3   0  124.24    6.59
   2   3   0  121.42    4.10
   2   3   0  138.75    8.17
   3  -3   0  229.45    7.32
   3  -3   0  222.97    7.35
  -3  -3   0  234.17    7.60
  -3  -3   0  241.56   13.13
   3  -3   0  236.80   11.37
   3   3   0  219.95    7.57
  -3   3   0  226.17    7.43
  -3   3   0  230.82   11.64
   3   3   0  226.40    7.58
   3   3   0  229.34   12.99
   4  -3   0    4.66    0.27
   4  -3   0    4.03    0.29
  -4  -3   0    2.51    1.63
   4  -3   0    4.11    1.56
   4  -3   0    3.81    0.31
  -4  -3   0    4.67    0.44
   4   3   0    2.92    1.59
   4   3   0    4.15    0.41
  -4   3   0    3.80    0.35
   4   3   0    4.53    0.43
  -4   3   0    5.78    2.02
  -5  -3   0   39.62    5.72
   5  -3   0   38.05    1.45
   5  -3   0   49.21    5.89
   5  -3   0   36.86    1.56
   5  -3   0   37.50    1.51
  -5   3   0   42.81    5.53
   5   3   0   48.40    6.28
  -5   3   0   38.78    1.70
   5   3   0   37.79    1.76
   5   3   0   36.44    1.74
   6  -3   0   59.51    6.68
   6  -3   0   67.04    2.57
   6  -3   0   67.57    2.49
   6  -3   0   70.00    2.43
  -6  -3   0   70.82    7.78
   6   3   0   66.79    2.78
   6   3   0   65.53    2.76
  -6   3   0   67.25    7.06
   6   3   0   62.35    7.41
  -7  -3   0  253.87   17.47
   7  -3   0  258.12   16.74
   7  -3   0  279.57    8.73
   7  -3   0  271.99    8.93
   7   3   0  251.18   17.70
   7   3   0  271.24    9.19
  -7   3   0  247.64   16.38
   7   3   0  271.01    9.20
   8  -3   0    1.72    0.30
  -8  -3   0    1.62    2.11
   8  -3   0    1.70    1.98
   8  -3   0    1.68    0.31
  -8   3   0    3.64    2.04
   8   3   0   -0.86    2.42
   8   3   0    1.99    0.55
   8   3   0    1.37    0.39
   9  -3   0   85.26    3.51
  -9  -3   0   86.35   10.36
   9  -3   0   88.45    3.33
   9   3   0   89.86    3.75
   9   3   0   90.38   10.94
  -9   3   0   97.04   10.68
   9   3   0   88.25    3.78
 -10  -3   0   13.88    6.01
  10  -3   0    7.81    0.64
  10  -3   0    6.99    0.70
  10   3   0    8.10    0.85
  10   3   0    7.60    0.79
 -10   3   0    6.24    3.39
  10   3   0    4.08    4.28
   0  -4   0   31.76    2.45
   0   4   0   30.78    2.49
   0   4   0   30.11    1.07
   0   4   0   31.46    1.12
  -1  -4   0  759.88   27.33
   1   4   0  745.65   27.46
  -1   4   0  725.06   25.27
  -1   4   0  759.81   25.08
  -2  -4   0    0.28    0.10
   2  -4   0    0.05    0.20
  -2  -4   0    0.66    0.72
  -2   4   0    0.31    0.06
   2   4   0    0.21    0.08
  -2   4   0    0.82    0.59
   2   4   0    0.41    0.13
   2   4   0    0.67    0.83
  -3  -4   0  688.99   21.91
   3  -4   0  694.22   25.57
  -3  -4   0  673.97   28.65
  -3   4   0  697.26   26.63
   3   4   0  728.10   29.36
  -3   4   0  652.42   21.70
   4  -4   0   11.83    0.59
  -4  -4   0    9.16    3.06
  -4  -4   0   11.91    0.78
   4  -4   0   10.52    2.44
   4   4   0   10.72    0.74
   4   4   0    9.43    2.69
   4   4   0   12.66    0.79
  -4   4   0   12.20    0.68
  -4   4   0   11.84    2.81
  -5  -4   0  409.86   22.36
   5  -4   0  494.75   15.22
   5  -4   0  488.70   15.03
   5  -4   0  491.49   15.09
   5  -4   0  475.48   21.20
  -5   4   0  485.32   15.40
   5   4   0  476.40   15.55
   5   4   0  473.67   23.48
   5   4   0  486.76   15.57
  -5   4   0  453.60   21.42
  -6  -4   0   13.26    4.04
   6  -4   0    7.52    2.36
   6  -4   0   11.02    0.58
   6  -4   0   10.57    0.66
   6  -4   0   10.47    0.54
   6   4   0    9.86    0.79
   6   4   0    9.68    3.19
   6   4   0   10.14    0.81
  -6   4   0    9.62    2.90
  -7  -4   0  108.64   10.71
   7  -4   0  110.98    3.99
   7  -4   0  109.49    3.82
   7  -4   0  106.19    9.52
   7  -4   0  111.17    3.76
   7   4   0  114.22    4.35
   7   4   0  103.90   10.53
   7   4   0  112.02    4.33
  -7   4   0  106.85    9.77
   8  -4   0    1.61    0.27
   8  -4   0    2.23    0.38
  -8  -4   0    2.74    2.13
   8  -4   0    1.37    1.84
  -8   4   0    1.03    1.82
   8   4   0    2.31    0.47
   8   4   0    2.32    0.48
   8   4   0    4.16    3.18
   9  -4   0    4.26    0.56
   9  -4   0    3.40    0.38
   9  -4   0    7.75    4.12
  -9   4   0    2.10    2.75
   9   4   0    3.55    0.66
   9   4   0    3.76    0.65
  10  -4   0   11.94    0.89
  10  -4   0    8.82    4.60
  10  -4   0   12.45    0.76
 -10  -4   0    6.47    4.40
  10   4   0   12.48    1.08
 -10   4   0    4.89    3.66
  10   4   0   12.78    1.99
  10   4   0   10.53    5.96
   0   5   0    0.06    0.34
   0   5   0    0.02    0.03
   0   5   0    0.14    0.05
  -1  -5   0  160.70    8.60
  -1  -5   0  154.01    5.19
  -1   5   0  154.06    5.08
   1   5   0  152.00    5.21
   1   5   0  166.80    8.92
   1   5   0  153.84    5.25
  -1   5   0  165.08    7.01
  -1   5   0  172.76    7.23
  -2  -5   0   42.58    4.41
  -2  -5   0   32.16    1.37
   2   5   0   33.08    1.41
   2   5   0   31.89    3.94
  -2   5   0   35.90    3.10
   2   5   0   31.78    1.38
  -2   5   0   34.16    1.18
   3  -5   0   48.50    3.68
  -3  -5   0   43.77    2.05
  -3  -5   0   45.11    5.23
  -3   5   0   42.02    1.56
  -3   5   0   47.24    4.32
   3   5   0   43.55    1.83
   3   5   0   48.03    5.54
   3   5   0   42.30    1.83
   4  -5   0   89.30    3.18
   4  -5   0  105.39    6.96
  -4  -5   0  104.69    9.11
   4   5   0   88.94    4.22
   4   5   0   89.98    3.58
   4   5   0  115.09    9.72
  -4   5   0  101.17    7.61
   5  -5   0    6.52    2.49
   5  -5   0   10.17    0.54
  -5  -5   0   11.10    3.29
   5   5   0    8.84    0.72
   5   5   0    9.18    2.92
   5   5   0    9.03    0.73
  -5   5   0    8.68    3.93
  -6  -5   0   13.31    3.96
   6  -5   0   12.50    0.69
   6   5   0   14.13    0.96
   6   5   0   10.93    0.88
   6   5   0    7.66    2.94
  -7  -5   0  105.65   10.60
   7  -5   0  111.92    3.86
   7   5   0   99.08   10.53
   7   5   0  109.35    4.27
   7   5   0  111.55    4.31
  -7   5   0   78.87   12.54
   8  -5   0   21.97    1.18
  -8  -5   0   18.46    5.18
   8   5   0   25.96    6.94
   8   5   0   24.61    1.52
   8   5   0   24.21    1.51
  -9  -5   0    8.89    4.45
   9  -5   0   19.13    1.09
   9  -5   0   11.22    5.02
   9   5   0   17.38    1.31
   9   5   0   23.89    6.70
  -9   5   0   25.86    7.61
   9   5   0   20.51    1.40
  10  -5   0   29.49    1.55
 -10  -5   0   25.19    7.11
 -10   5   0   26.87    9.84
  10   5   0   30.17    2.03
  10   5   0   33.64    1.96
  10   5   0   26.44    7.74
   0  -6   0  520.71   18.96
   0   6   0  470.50   15.44
   0   6   0  512.17   19.26
   0   6   0  467.88   15.54
  -1  -6   0    0.35    0.42
   1   6   0    0.22    0.09
  -1   6   0   -0.36    0.24
   1   6   0    0.91    0.63
  -1   6   0    0.32    0.08
  -1   6   0    0.40    0.33
   1   6   0    0.25    0.09
  -2  -6   0  475.95   15.85
  -2  -6   0  521.94   22.08
   2   6   0  522.02   22.46
  -2   6   0  516.21   19.15
   2   6   0  482.33   15.88
  -2   6   0  469.68   15.63
  -2   6   0  532.43   18.17
   2   6   0  469.99   15.91
   3  -6   0   10.04    1.53
  -3  -6   0    5.99    2.23
  -3  -6   0   10.45    0.66
   3   6   0    9.84    0.67
  -3   6   0   10.04    0.48
   3   6   0    4.62    1.86
  -3   6   0   12.23    2.61
   3   6   0    9.55    0.65
   4  -6   0    9.09    1.94
  -4  -6   0    8.67    2.62
   4   6   0    6.84    0.59
  -4   6   0    5.01    1.70
   4   6   0    3.55    1.81
   4   6   0    7.02    0.59
  -5  -6   0   70.75    7.58
   5  -6   0   81.72    2.71
   5  -6   0   76.69    5.92
  -5   6   0   74.83    6.53
   5   6   0   78.60    3.18
   5   6   0   81.63    3.17
   5   6   0   72.54    7.90
   6  -6   0  133.08    9.14
   6  -6   0  139.24    4.58
  -6   6   0  135.05   10.01
   6   6   0  132.12    5.08
   6   6   0  134.59    5.06
   7  -6   0   40.02    1.83
  -7  -6   0   37.80    6.40
   7  -6   0   40.99    5.37
   7   6   0   42.42    2.33
  -7   6   0   39.08    5.60
   7   6   0   50.12    7.31
   7   6   0   42.09    2.13
   8  -6   0   82.05    3.04
  -8  -6   0   76.30    9.74
   8  -6   0   80.03    8.41
   8   6   0   83.81   10.33
   8   6   0   84.29    3.57
  -8   6   0   74.12    8.40
   8   6   0   79.67    3.55
   9  -6   0    0.85    0.25
   9  -6   0    2.35    2.55
  -9  -6   0   -0.62    3.02
   9   6   0    0.95    0.34
  -9   6   0    1.24    2.98
   9   6   0    0.89    0.33
   9   6   0    1.53    3.45
  -1  -7   0  235.99   11.89
   1   7   0  211.15    7.38
  -1   7   0  213.02    7.31
   1   7   0  245.63   12.51
  -1   7   0  247.89   10.33
   1   7   0  213.21    7.47
  -1   7   0  244.44   10.38
  -2  -7   0  327.19   11.47
  -2  -7   0  392.47   18.02
   2   7   0  336.37   11.52
  -2   7   0  393.14   14.13
  -2   7   0  340.20   11.30
   2   7   0  388.81   18.44
  -2   7   0  369.37   14.90
   2   7   0  334.18   11.59
  -3  -7   0    9.05    0.62
  -3  -7   0   10.46    2.83
   3   7   0    7.14    2.23
  -3   7   0    7.59    1.59
   3   7   0    9.33    0.67
  -3   7   0    9.27    0.47
   3   7   0    9.08    0.63
  -3   7   0    7.24    1.93
  -4  -7   0  460.70   32.18
   4  -7   0  538.15   19.95
   4   7   0  546.15   17.26
  -4   7   0  541.45   16.87
   4   7   0  557.48   17.34
  -4   7   0  536.21   21.82
   4   7   0  496.67   30.60
   5  -7   0   -0.15    0.73
  -5  -7   0    1.17    1.67
  -5   7   0    2.99    1.23
   5   7   0    0.51    0.20
   5   7   0   -1.12    1.04
   5   7   0    0.54    0.18
   6  -7   0  285.23   14.23
  -6  -7   0  289.38   18.41
   6  -7   0  289.07    9.23
   6   7   0  285.76   18.82
  -6   7   0  277.39   15.55
   6   7   0  282.98    9.91
   6   7   0  294.94    9.88
   7  -7   0   34.82    1.42
   7  -7   0   33.65    4.71
  -7  -7   0   28.95    6.32
  -7   7   0   26.41    5.37
   7   7   0   36.70    7.88
   7   7   0   35.25    1.89
   7   7   0   35.72    1.93
  -8  -7   0    2.18    3.65
   8  -7   0    3.81    2.46
   8  -7   0    3.65    0.37
   8   7   0    0.24    2.61
   8   7   0    3.25    0.59
  -8   7   0    1.03    1.83
   8   7   0    3.52    0.65
   9  -7   0    3.36    2.69
  -9  -7   0   -4.36    3.50
   9  -7   0    4.45    0.45
   9   7   0    3.93    0.70
   9   7   0    5.22    0.85
   9   7   0   -3.90    4.03
  -9   7   0    4.50    3.51
   0  -8   0  609.31   22.65
   0   8   0  586.68   23.12
   0   8   0  529.28   18.17
  -1  -8   0    0.37    0.81
   1   8   0    0.39    0.14
  -1   8   0    0.08    0.45
  -1   8   0    0.56    0.64
  -1   8   0    0.21    0.08
   1   8   0    0.19    0.08
   1   8   0   -0.39    0.56
  -2  -8   0   71.85    6.12
  -2  -8   0   72.57    2.65
  -2   8   0   75.61    4.83
   2   8   0   66.39    6.26
   2   8   0   76.33    2.82
  -2   8   0   68.70    4.43
   2   8   0   74.87    2.72
  -2   8   0   75.64    2.54
  -3  -8   0   23.27    3.71
  -3  -8   0   19.28    1.02
   3   8   0   19.97    1.07
   3   8   0   22.66    3.80
  -3   8   0   19.78    2.02
  -3   8   0   20.83    2.67
  -3   8   0   19.90    0.85
   3   8   0   19.73    1.11
  -4  -8   0    0.07    0.93
   4   8   0    0.30    0.12
  -4   8   0    0.27    0.79
  -4   8   0    0.13    0.08
   4   8   0    1.57    1.10
   4   8   0    0.19    0.12
  -5  -8   0    0.84    1.45
   5  -8   0    1.15    0.75
   5   8   0    1.02    0.29
   5   8   0   -0.62    1.43
   5   8   0    0.77    0.25
  -5   8   0    2.51    1.42
  -6  -8   0   30.80    5.39
   6  -8   0   29.36    3.60
  -6   8   0   31.41    4.25
   6   8   0   32.49    1.74
   6   8   0   35.31    2.48
   6   8   0   27.52    6.22
  -7  -8   0    9.20    3.41
   7  -8   0   11.85    0.62
   7  -8   0   10.50    2.70
   7   8   0   12.46    1.03
  -7   8   0   11.90    3.67
   7   8   0   13.26    1.06
   7   8   0   11.42    4.49
   8  -8   0   70.57    7.05
  -8  -8   0   66.72    9.39
   8   8   0   71.08    3.28
  -8   8   0   61.57    7.16
   8   8   0   70.78    3.21
   9  -8   0   48.78    1.96
   9  -8   0   45.83    6.86
   9   8   0   49.63    2.59
  -9   8   0   40.67    6.44
   9   8   0   48.29    2.59
   9   8   0   60.54   10.29
   0  -9   0   -0.37    0.43
   0   9   0    0.02    0.07
   0   9   0    0.98    0.67
  -1  -9   0   76.13    5.88
  -1   9   0   74.56    4.90
  -1   9   0   72.45    5.00
   1   9   0   69.26    6.02
  -1   9   0   78.60    2.71
   1   9   0   80.95    2.72
   1   9   0   77.47    2.86
  -2  -9   0   -0.96    0.71
  -2   9   0    0.59    0.69
   2   9   0    0.86    0.94
   2   9   0    0.98    0.25
  -2   9   0    0.87    0.17
   2   9   0    1.11    0.23
  -2   9   0    1.14    0.61
  -3  -9   0    0.37    0.66
  -3  -9   0    0.18    0.12
  -3   9   0   -0.38    0.39
   3   9   0    0.11    0.87
   3   9   0    0.10    0.11
  -3   9   0    0.40    0.74
  -3   9   0    0.30    0.09
   3   9   0    0.43    0.14
  -4  -9   0    0.34    1.19
  -4   9   0   -0.05    1.03
  -4   9   0    2.15    0.88
   4   9   0    0.05    1.46
   4   9   0    1.49    0.32
  -4   9   0    1.48    0.22
   4   9   0    0.78    0.27
  -5  -9   0   69.84    7.94
  -5   9   0   69.80    5.86
   5   9   0   70.53    2.95
   5   9   0   73.97    8.60
   5   9   0   68.27    3.00
  -6  -9   0    2.04    2.82
   6  -9   0    1.92    1.21
   6   9   0    2.02    0.45
   6   9   0    2.65    0.78
   6   9   0    2.07    2.38
  -6   9   0    2.09    1.57
  -7  -9   0   17.60    5.86
   7  -9   0   22.90    5.98
   7   9   0   20.62    1.36
   7   9   0   18.38    1.36
  -7   9   0   21.82    6.50
  -8  -9   0   13.65    4.88
   8  -9   0   19.09    3.81
   8   9   0   16.58    1.31
   8   9   0   21.70    7.01
  -8   9   0   14.63    3.80
   8   9   0   16.54    1.28
   0 -10   0   68.03    5.18
   0  10   0   59.65    5.21
   0  10   0   62.87    2.39
  -1 -10   0   17.41    3.39
  -1  10   0   18.48    0.88
   1  10   0   19.75    3.05
  -1  10   0   18.18    2.43
   1  10   0   17.87    0.97
   1  10   0   17.54    0.83
  -1  10   0   17.45    2.32
  -2 -10   0   34.64    4.45
   2  10   0   29.91    4.37
  -2  10   0   30.75    2.96
  -2  10   0   35.82    1.35
  -2  10   0   28.65    3.08
   2  10   0   32.62    1.56
   2  10   0   33.46    1.44
  -3 -10   0  407.52   20.59
   3  10   0  423.21   13.45
  -3  10   0  410.40   13.14
  -3  10   0  413.61   15.82
  -3  10   0  392.98   16.72
   3  10   0  394.04   21.10
   3  10   0  428.59   13.62
  -4 -10   0   10.06    3.25
  -4  10   0   14.16    0.72
   4  10   0   12.62    0.96
   4  10   0   14.57    0.94
  -4  10   0   13.55    1.76
   4  10   0   12.18    3.58
  -5 -10   0  200.26   15.18
   5  10   0  228.51    8.16
  -5  10   0  195.41   13.40
  -5  10   0  230.52   11.61
   5  10   0  241.48    7.87
  -6 -10   0    7.71    4.02
  -6  10   0   11.28    2.31
  -6  10   0   15.84    3.19
   6  10   0   13.96    1.03
   6  10   0   15.53    5.59
   6  10   0   13.58    1.09
  -7 -10   0   23.38    6.22
   7  10   0   31.30    7.62
   7  10   0   27.01    1.67
   7  10   0   29.90    1.80
  -7  10   0   26.90    4.24
   8 -10   0   18.68    3.57
   8  10   0   17.53    1.36
  -8  10   0   19.61    4.36
   8  10   0   21.22    1.54
   0 -11   0    0.30    0.31
   0  11   0    0.51    0.90
   0  11   0    0.11    0.09
  -1 -11   0  375.32   17.81
  -1  11   0  389.63   12.62
   1  11   0  390.46   12.52
  -1  11   0  387.70   16.79
  -1  11   0  396.94   16.41
   1  11   0  404.51   12.82
  -2 -11   0   92.42    7.96
   2  11   0  107.45    3.79
   2  11   0  109.92    4.01
  -2  11   0  100.59    6.36
  -2  11   0  110.83    3.71
  -2  11   0  108.62    6.32
  -3 -11   0   70.76    7.24
  -3  11   0   78.23    4.78
   3  11   0   78.58    3.12
  -3  11   0   77.46    2.73
   3  11   0   74.53    2.92
  -3  11   0   70.19    5.10
  -4 -11   0    9.70    5.32
   4  11   0   10.23    0.87
  -4  11   0   11.40    1.64
  -4  11   0   11.43    0.66
  -4  11   0   13.43    2.18
   4  11   0   11.87    0.85
  -5 -11   0    5.46    3.00
   5  11   0    3.72    2.74
   5  11   0    5.05    0.61
   5  11   0    4.24    0.62
  -5  11   0    5.09    1.42
  -5  11   0    6.05    0.46
  -5  11   0    5.02    1.66
  -6 -11   0    3.07    2.67
   6  11   0    4.70    3.26
   6  11   0    4.98    0.72
   6  11   0    5.75    0.67
  -6  11   0    6.29    1.77
   7  11   0   97.01    4.20
   7  11   0   95.20    4.03
  -7  11   0   98.05    7.32
   0  12   0   23.50    1.63
   0  12   0   19.69    3.38
  -1 -12   0    4.09    2.51
   1  12   0   10.96    0.74
  -1  12   0   10.66    2.13
  -1  12   0    9.90    2.43
   1  12   0    9.46    0.54
  -1  12   0    9.35    0.62
  -2 -12   0   11.49    2.99
  -2  12   0   11.51    2.28
   2  12   0    9.75    0.64
  -2  12   0    9.69    0.61
  -2  12   0   10.26    2.11
   2  12   0    8.87    0.75
  -3 -12   0    9.08    2.87
  -3  12   0   11.90    0.67
   3  12   0   10.97    0.75
   3  12   0   12.14    4.06
  -3  12   0   11.60    2.03
   3  12   0   11.02    0.87
  -4 -12   0    6.01    2.79
  -4  12   0    5.47    0.42
   4  12   0    6.02    2.98
  -4  12   0    5.49    1.19
   4  12   0    4.55    0.52
  -4  12   0    4.97    1.32
   4  12   0    4.23    0.87
   5  12   0    3.85    0.63
  -5  12   0    5.78    1.42
  -5  12   0    2.70    0.91
  -5  12   0    4.55    0.39
   5  12   0    4.46    0.63
   6  12   0   36.39    2.08
   6  12   0   35.95    1.93
   7  12   0    1.66    0.42
   7  12   0    1.22    0.41
  -7  12   0    2.30    1.65
   0  13   0    1.55    0.97
   0  13   0   -1.35    1.00
   0  13   0    0.41    0.15
  -1 -13   0   66.24    6.15
   1  13   0   66.13    6.80
  -1  13   0   69.40    2.62
   1  13   0   66.43    2.39
  -1  13   0   62.27    5.13
   1  13   0   68.70    2.75
  -1  13   0   69.40    5.75
   2  13   0   76.79    2.94
   2  13   0   77.76    3.09
  -2  13   0   70.65    5.14
   2  13   0   73.00   10.85
  -2  13   0   74.00    2.77
  -2  13   0   69.02    5.13
  -3  13   0   28.14    1.27
  -3  13   0   27.31    2.61
   3  13   0   28.68    1.38
  -3  13   0   24.92    2.40
   3  13   0   28.16    1.58
  -4  13   0   70.65    2.95
   4  13   0   68.31    2.85
   4  13   0   70.35    3.12
   5  13   0    2.83    0.48
   5  13   0    4.08    0.66
  -5  13   0    4.42    0.43
   6  13   0    3.87    0.68
   6  13   0    4.84    0.69
   0  14   0  115.81    7.82
   0  14   0  123.18    4.41
  -1  14   0   10.29    2.22
  -1  14   0    8.79    0.64
   1  14   0    8.33    0.70
  -2  14   0  144.00    7.69
   2  14   0  144.70    5.05
   2  14   0  152.46    5.47
  -2  14   0  149.79    5.15
   3  14   0   22.87    1.21
  -3  14   0   25.10    1.19
   3  14   0   23.65    1.44
   4  14   0    2.99    0.57
  -4  14   0    3.69    0.38
   4  14   0    3.74    0.44
   5  14   0   49.05    2.53
  -5  14   0   49.13    2.27
   5  14   0   47.07    2.26
   0  15   0   -1.63    1.04
   0  15   0   -0.05    0.13
   1  15   0   15.89    1.04
  -1  15   0   16.71    0.97
  -1  15   0   14.09    2.80
   2  15   0   39.62    1.65
  -2  15   0   41.54    1.79
  -2  15   0   40.09    3.83
   2  15   0   40.63    2.02
   3  15   0    5.69    0.54
  -3  15   0    6.75    0.56
   3  15   0    6.18    0.70
  10   0  -1    0.57    0.22
 -10   0   1    0.04    2.73
  10   0  -1   -0.10    0.17
  10   0  -1    2.91    3.91
   9   0  -1    4.56    3.75
  -9   0   1    5.04    3.18
  -8   0   1    2.44    1.92
   8   0  -1   -0.64    1.52
   8   0  -1    0.14    0.12
   8   0  -1    0.26    0.19
   7   0  -1   16.56    1.02
   7   0  -1   14.94    0.95
  -7   0   1   16.24    4.14
   7   0  -1   12.19    3.67
   6   0  -1    0.05    0.09
   6   0  -1   -0.06    0.08
  -6   0   1   -0.34    0.85
   5   0  -1   43.14    1.86
   5   0  -1   51.88    6.30
  -5   0   1   46.36    5.75
   5   0  -1   45.36    1.86
   4   0  -1    0.04    0.05
   4   0  -1    1.18    0.82
  -4   0   1    0.19    0.32
  -3   0   1    8.21    2.03
   3   0  -1    7.59    0.46
   3   0  -1    8.27    0.48
   3   0  -1    9.89    2.47
  -3   0   1    7.40    0.48
  -2   0   1    0.42    0.41
  -2   0   1   -0.02    0.02
  -2   0   1   -0.01    0.02
   2   0  -1   -0.34    0.22
   2   0  -1   -0.02    0.02
   2   0  -1    0.05    0.04
  -1   0   1    2.46    0.15
  -1   0   1    2.48    0.16
   1   0  -1    2.43    0.15
   1   0  -1    2.76    0.16
  -1   0   1    1.90    0.54
   1   0   1    3.97    0.92
  -1   0  -1    6.35    1.05
   1   0   1    5.27    0.27
   2   0   1    0.31    0.49
  -2   0  -1    0.06    0.05
  -2   0  -1   -0.19    0.37
   2   0   1    0.01    0.04
   3   0   1   47.79    4.81
  -3   0  -1   48.42    1.83
  -3   0  -1   44.99    4.70
   3   0   1   45.67    1.78
   4   0   1   -0.02    0.06
  -4   0  -1   -0.08    0.81
  -4   0  -1    0.09    0.07
   4   0   1    0.71    1.14
   5   0   1    3.73    2.07
  -5   0  -1    4.45    2.28
   5   0   1    6.00    0.50
   5   0   1    6.34    0.52
   6   0   1    0.06    0.07
   6   0   1    0.71    0.91
   6   0   1    0.05    0.08
  -6   0  -1   -1.02    0.62
   7   0   1   10.11    0.76
   7   0   1   10.07    0.78
   8   0   1    0.02    0.12
   8   0   1   -0.64    1.71
   8   0   1    0.06    0.16
  -8   0  -1   -1.93    2.07
   9   0   1   44.56    2.23
   9   0   1   50.75    8.44
  -9   0  -1   49.68    8.03
   9   0   1   46.21    2.26
 -10   0  -1    1.42    2.86
  10   0   1    3.82    3.93
  10  -1  -1    3.32    3.67
 -10  -1   1    2.89    2.73
  10   1  -1   -2.84    3.93
 -10   1   1    2.71    2.74
   9  -1  -1   19.72    1.17
   9  -1  -1   19.39    1.23
   9  -1  -1   20.88    6.16
  -9  -1   1   18.68    5.19
   9   1  -1   14.83    5.16
   9   1  -1   20.54    1.27
   9   1  -1   19.47    1.28
  -9   1   1   20.81    4.92
   8  -1  -1   10.69    0.77
   8  -1  -1   11.15    4.20
   8  -1  -1   12.21    0.87
  -8  -1   1   13.79    4.62
   8   1  -1   10.39    0.83
   8   1  -1    8.44    4.04
  -8   1   1    8.57    3.99
   8   1  -1   12.67    0.93
   7  -1  -1    6.71    0.59
  -7  -1   1    5.93    2.61
   7  -1  -1    4.97    2.53
   7  -1  -1    6.50    0.54
  -7   1   1    4.28    1.99
   7   1  -1    5.24    0.54
   7   1  -1    5.21    2.29
   7   1  -1    6.05    0.59
   6  -1  -1    6.30    0.52
  -6  -1   1   12.14    5.83
   6  -1  -1   11.46    3.39
   6  -1  -1    7.40    0.57
  -6   1   1    4.41    2.00
   6   1  -1    6.85    0.58
   6   1  -1    8.17    0.64
   6   1  -1    2.41    2.27
  -5  -1   1    2.70    1.83
   5  -1  -1    3.42    0.34
   5  -1  -1    3.93    1.99
   5   1  -1    6.94    2.71
   5   1  -1    4.20    0.40
   5   1  -1    4.39    0.43
  -5   1   1    3.00    0.37
  -5   1   1    3.45    1.79
  -4  -1   1    4.44    0.41
  -4  -1   1    4.11    1.78
   4  -1  -1    3.94    0.34
   4  -1  -1    3.74    0.32
   4   1  -1    4.33    0.38
  -4   1   1    3.84    0.36
   4   1  -1    3.94    0.36
  -4   1   1    5.32    1.99
   4   1  -1    4.15    1.83
   3  -1  -1   40.04    1.51
   3  -1  -1   39.18    1.53
  -3  -1   1   41.17    1.63
  -3  -1   1   46.93    4.69
   3   1  -1   40.91    1.60
  -3   1   1   42.55    4.16
  -3   1   1   40.86    1.57
   3   1  -1   42.52    4.53
   3   1  -1   41.04    1.60
   2  -1  -1   -0.06    0.28
   2  -1  -1    0.25    0.06
  -2  -1   1    0.18    0.07
  -2  -1   1    0.14    0.28
   2  -1  -1    0.17    0.06
  -2  -1   1    0.08    0.05
   2   1  -1    0.26    0.08
   2   1  -1    0.19    0.08
  -2   1   1    0.41    0.09
   2   1  -1    0.05    0.29
  -2   1   1    0.28    0.08
   1  -1  -1    3.89    0.18
   1  -1  -1    3.96    0.65
  -1  -1   1    3.40    0.87
  -1   1   1    3.75    0.60
   1   1  -1    3.71    0.22
  -1   1   1    3.91    0.17
   1   1  -1    2.58    0.74
  -1   1   1    3.86    0.19
   1   1  -1    3.70    0.22
  -1  -1  -1    0.61    0.39
  -1  -1  -1    0.63    0.10
   1  -1   1    0.85    0.07
   1   1   1    0.80    0.10
   1   1   1    0.96    0.50
  -1   1  -1    0.78    0.07
  -1   1  -1    1.10    0.47
  -2  -1  -1    1.00    0.84
  -2  -1  -1    0.92    0.16
   2  -1   1    1.18    0.17
   2   1   1    1.34    0.21
  -2   1  -1    0.50    0.49
   2   1   1    1.02    0.76
  -2   1  -1    0.87    0.16
   3  -1   1    2.39    1.28
  -3  -1  -1    1.72    0.88
   3   1   1    3.58    1.54
   4  -1   1    8.59    0.56
  -4  -1  -1    8.41    0.60
  -4  -1  -1    7.03    2.45
   4  -1   1    7.64    2.56
   4   1   1    8.45    0.59
   4   1   1   11.23    2.98
  -4   1  -1    9.97    0.91
  -4   1  -1    9.79    2.77
  -5  -1  -1   33.35    5.16
   5  -1   1   30.23    4.68
   5  -1   1   35.96    1.52
   5  -1   1   33.15    1.51
   5   1   1   33.36    1.59
   5   1   1   32.98    5.33
  -5   1  -1   36.39    5.37
   5   1   1   33.44    1.56
   6  -1   1    0.21    0.11
  -6  -1  -1   -0.38    1.17
   6  -1   1   -0.52    0.93
   6  -1   1    0.06    0.11
   6   1   1    0.14    0.11
   6   1   1    1.01    1.22
   6   1   1    0.40    0.14
  -6   1  -1    0.54    1.01
  -7  -1  -1   15.82    4.52
   7  -1   1   20.20    4.83
   7  -1   1   20.57    1.15
   7  -1   1   21.29    1.20
   7   1   1   19.99    1.21
  -7   1  -1   18.01    4.57
   7   1   1   22.09    1.28
   7   1   1   24.47    5.49
  -8  -1  -1    8.71    3.55
   8  -1   1    5.23    3.12
   8  -1   1   13.52    0.95
   8  -1   1   13.23    0.89
   8   1   1   13.10    0.95
  -8   1  -1   12.59    3.83
   8   1   1    5.62    3.06
   8   1   1   12.78    0.97
  -9  -1  -1    0.89    2.72
   9  -1   1    0.79    0.24
   9  -1   1    2.99    2.85
   9  -1   1    1.27    0.29
   9   1   1    1.33    0.33
   9   1   1    2.44    2.96
   9   1   1    1.43    0.36
  -9   1  -1    3.84    2.91
  10  -1   1    7.78    0.74
  10  -1   1    8.26    0.81
  10  -1   1    9.40    4.64
 -10  -1  -1    8.28    3.80
 -10   1  -1   11.25    4.25
  10   1   1    6.21    4.64
  10   1   1    7.93    0.83
  10   1   1    7.03    0.74
  10  -2  -1   17.33    1.03
  10  -2  -1   24.78    7.37
  10  -2  -1   16.36    1.13
 -10  -2   1   13.33    5.20
 -10   2   1   13.57    4.69
  10   2  -1   16.71    1.24
  10   2  -1    5.89    5.75
  10   2  -1   15.56    1.15
   9  -2  -1    2.81    2.78
   9  -2  -1    0.54    0.22
   9  -2  -1    0.64    0.20
  -9  -2   1   -1.86    1.66
   9   2  -1    0.65    0.25
   9   2  -1   -3.36    2.62
   9   2  -1    0.89    0.31
  -9   2   1    2.09    1.87
  -8  -2   1   14.86    4.44
   8  -2  -1   21.23    1.13
   8  -2  -1   23.60    1.26
  -8   2   1   18.07    4.78
   8   2  -1   23.07    1.35
   8   2  -1   15.46    4.86
   7  -2  -1   15.21    0.89
   7  -2  -1   16.73    0.98
  -7  -2   1   15.12    4.24
  -7   2   1   18.00    4.34
   7   2  -1   22.35    5.62
   7   2  -1   16.38    1.05
   7   2  -1   16.18    1.07
  -6  -2   1    2.74    1.45
   6   2  -1    2.47    0.39
   6   2  -1    2.73    1.93
  -6   2   1    1.91    1.26
   5  -2  -1   25.24    1.12
  -5  -2   1   26.99    4.64
   5  -2  -1   22.82    4.70
   5  -2  -1   24.40    1.17
   5   2  -1   27.23    1.52
  -5   2   1   34.76    4.74
  -5   2   1   26.91    1.29
   5   2  -1   24.59    1.27
   5   2  -1   27.83    4.69
   4  -2  -1   18.64    3.15
  -4  -2   1   17.49    0.97
   4  -2  -1   18.05    0.79
   4  -2  -1   17.57    0.83
  -4  -2   1   13.61    3.39
   4   2  -1   22.58    4.62
   4   2  -1   16.35    0.91
  -4   2   1   17.08    0.88
  -4   2   1   19.23    3.13
   4   2  -1   16.90    0.92
  -3  -2   1    1.44    1.00
   3  -2  -1    1.40    0.93
  -3   2   1   -0.44    0.41
   3   2  -1    0.41    0.53
   2  -2  -1    5.27    0.27
  -2  -2   1    5.49    0.37
  -2  -2   1    7.13    1.91
   2  -2  -1    4.62    1.18
  -2   2   1    3.55    0.98
   2   2  -1    5.24    0.35
  -2   2   1    4.86    0.29
   2   2  -1    7.04    1.84
   2   2  -1    5.63    0.36
  -1  -2   1    0.29    0.07
   1  -2  -1    0.39    0.04
  -1  -2   1    0.41    0.09
  -1  -2   1    0.64    0.42
   1  -2  -1    0.48    0.22
   1   2  -1    0.20    0.28
   1   2  -1    0.43    0.09
  -1   2   1    0.46    0.05
   1   2  -1    0.48    0.10
   0  -2   1    0.70    0.33
   0  -2  -1    1.15    0.36
   0  -2   1    0.77    0.08
   0  -2   1    0.75    0.06
   0   2  -1    0.71    0.08
   0   2   1    0.64    0.27
   0   2  -1    0.72    0.06
   0   2  -1    0.64    0.30
   1  -2   1    3.02    0.16
  -1  -2  -1    3.04    0.93
   1  -2   1    2.61    0.66
  -1  -2  -1    3.29    0.24
   1  -2   1    3.02    0.16
   1   2   1    3.06    0.93
   1   2   1    3.07    0.22
  -1   2  -1    2.97    0.17
  -1   2  -1    2.86    0.71
  -2  -2  -1    2.57    1.08
   2  -2   1    1.59    0.64
   2  -2   1    1.50    0.13
  -2  -2  -1    1.53    0.18
   2  -2   1    1.54    0.15
   2   2   1    1.18    0.80
   2   2   1    1.43    0.18
  -2   2  -1    2.04    0.89
  -3  -2  -1   18.75    3.10
   3  -2   1   15.13    0.65
   3  -2   1   15.46    0.72
  -3  -2  -1   15.96    0.82
  -3   2  -1   17.68    2.79
   3   2   1   13.01    2.88
  -3   2  -1   16.29    0.77
   3   2   1   14.30    0.79
  -4  -2  -1   14.71    0.85
  -4  -2  -1    9.27    2.76
   4  -2   1   12.93    0.70
   4  -2   1   14.20    0.75
   4   2   1   13.88    0.82
  -4   2  -1   14.52    0.79
  -4   2  -1   16.05    3.51
   4   2   1   13.66    3.27
  -5  -2  -1    0.56    0.80
   5  -2   1    1.28    1.26
  -5   2  -1    2.40    1.52
   5   2   1    1.27    1.23
  -5   2  -1    1.32    0.30
   5   2   1    1.17    0.26
  -6  -2  -1   22.44    5.07
   6  -2   1   25.50    1.27
   6  -2   1   19.99    4.30
   6  -2   1   26.12    1.24
   6   2   1   26.05    1.40
   6   2   1   23.78    4.97
   6   2   1   25.80    1.38
  -6   2  -1   23.62    4.04
   7  -2   1    2.52    0.41
   7  -2   1    1.56    1.05
  -7  -2  -1    2.14    2.10
   7  -2   1    2.78    0.34
   7   2   1    1.94    0.39
   7   2   1    2.13    2.04
  -7   2  -1    3.31    1.78
   7   2   1    2.49    0.46
   8  -2   1   13.35    0.90
  -8  -2  -1   11.78    3.99
   8  -2   1   10.83    0.79
   8  -2   1    9.23    3.74
   8   2   1   11.12    0.91
  -8   2  -1    9.96    3.76
   8   2   1    9.21    3.73
   9  -2   1    9.25    4.44
   9  -2   1    9.85    0.80
   9  -2   1    9.76    0.75
  -9  -2  -1    2.73    3.38
   9   2   1    8.83    0.86
   9   2   1    8.51    0.81
  -9   2  -1    4.58    3.29
  10  -2   1    0.69    0.28
  10  -2   1    0.73    0.23
 -10  -2  -1   -1.41    2.94
  10  -2   1    5.33    4.00
 -10   2  -1    2.22    3.21
  10   2   1    1.03    0.28
  10   2   1    7.45    4.30
  10   2   1    1.37    0.37
  10  -3  -1    3.40    4.40
  10  -3  -1    5.53    0.61
 -10  -3   1    2.45    3.92
  10  -3  -1    4.86    0.48
  10   3  -1    5.58    0.69
 -10   3   1   -0.71    2.39
  10   3  -1    5.73    0.68
  10   3  -1    7.19    5.48
   9  -3  -1    3.97    3.21
  -9  -3   1   -4.06    2.11
   9   3  -1    1.27    0.36
   9   3  -1   -3.52    3.29
  -9   3   1    0.11    1.99
   8  -3  -1    7.95    0.57
   8  -3  -1    7.05    3.21
   8  -3  -1    7.96    0.63
  -8  -3   1   11.40    3.75
   8   3  -1    7.08    0.73
   8   3  -1    9.26    4.17
  -8   3   1   10.08    3.63
   7  -3  -1    2.97    1.78
   7  -3  -1    1.29    0.23
   7  -3  -1    1.29    0.25
   7  -3  -1    1.33    0.27
  -7  -3   1    1.01    1.36
   7   3  -1    1.31    0.30
  -7   3   1    2.86    1.74
   7   3  -1    1.40    0.34
   7   3  -1   -0.75    1.45
   6  -3  -1   20.55    0.96
   6  -3  -1   20.46    1.04
   6  -3  -1   18.03    3.86
  -6  -3   1   21.75    4.88
   6  -3  -1   22.03    0.93
  -6   3   1   24.83    4.04
   6   3  -1   19.11    1.16
   6   3  -1   18.36    4.98
   6   3  -1   19.51    1.17
   5  -3  -1    1.68    0.26
   5  -3  -1    1.46    0.18
   5  -3  -1    1.40    0.16
  -5  -3   1    0.76    1.11
   5  -3  -1    0.96    1.22
  -5   3   1    2.95    1.45
   5   3  -1    1.50    0.31
   5   3  -1    1.66    0.31
   5   3  -1    2.04    1.50
  -5   3   1    1.41    0.28
  -4  -3   1   23.91    3.89
   4  -3  -1   19.03    3.03
   4  -3  -1   17.46    0.83
   4  -3  -1   18.69    0.77
  -4  -3   1   18.43    1.02
   4  -3  -1   18.33    0.73
  -4   3   1   19.40    0.92
   4   3  -1   18.46    0.99
  -4   3   1   21.61    3.14
   4   3  -1   23.95    4.09
   4   3  -1   17.45    0.97
  -3  -3   1    3.29    0.34
  -3  -3   1    6.85    2.27
   3  -3  -1    4.26    1.42
   3  -3  -1    3.43    0.24
  -3   3   1    3.70    0.28
  -3   3   1    4.02    1.40
   3   3  -1    4.37    0.37
   3   3  -1    2.52    1.33
   3   3  -1    3.29    0.32
   2  -3  -1    1.68    0.12
  -2  -3   1    1.62    0.98
  -2  -3   1    1.53    0.19
   2  -3  -1    1.91    0.69
  -2   3   1    1.61    0.13
   2   3  -1    1.09    0.78
   2   3  -1    1.90    0.21
  -2   3   1    1.66    0.76
   2   3  -1    1.49    0.22
  -2   3   1    1.44    0.11
  -1  -3   1    0.79    0.59
  -1  -3   1    1.06    0.14
  -1  -3   1    1.45    0.15
   1   3  -1    1.38    0.63
   1   3  -1    1.45    0.16
  -1   3   1    1.35    0.39
  -1   3   1    1.38    0.31
   0  -3  -1    3.21    0.74
   0  -3   1    3.47    0.20
   0  -3   1    3.28    0.18
   0  -3   1    3.01    0.83
   0   3  -1    3.18    0.17
   0   3  -1    3.03    0.20
   0   3  -1    4.55    1.02
   0   3   1    2.99    0.76
   1  -3   1   -0.02    0.17
  -1  -3  -1    0.00    0.18
  -1  -3  -1    0.15    0.06
   1  -3   1    0.24    0.04
  -1   3  -1    0.15    0.04
   1   3   1    0.26    0.37
   1   3   1    0.04    0.04
  -1   3  -1    0.11    0.27
   2  -3   1    3.82    1.09
   2  -3   1    3.38    0.19
   2  -3   1    3.40    0.21
  -2  -3  -1    3.57    0.29
  -2  -3  -1    4.33    1.61
   2   3   1    3.61    0.30
  -2   3  -1    1.60    0.77
  -2   3  -1    3.45    0.21
   2   3   1    3.08    1.23
  -3  -3  -1    1.01    0.22
   3  -3   1    1.51    0.16
  -3  -3  -1    2.31    1.21
   3  -3   1    1.53    0.13
   3  -3   1    0.88    0.72
   3   3   1    0.82    0.96
   3   3   1    1.26    0.25
  -3   3  -1    0.12    0.77
   4  -3   1   23.94    1.02
   4  -3   1   25.89    3.65
   4  -3   1   24.30    1.05
  -4  -3  -1   24.78    1.22
   4  -3   1   23.39    0.94
  -4  -3  -1   22.92    4.89
   4   3   1   22.35    1.18
   4   3   1   24.60    4.11
  -4   3  -1   23.55    3.79
  -4   3  -1   23.68    1.11
   4   3   1   22.80    1.19
   5  -3   1    2.13    1.09
   5  -3   1    3.19    0.26
  -5  -3  -1    6.45    2.70
   5  -3   1    2.35    0.26
   5  -3   1    2.72    0.30
  -5   3  -1    3.13    0.35
  -5   3  -1    1.03    1.09
   5   3   1    5.60    2.56
   5   3   1    2.87    0.44
   5   3   1    2.49    0.40
   6  -3   1    0.04    0.85
  -6  -3  -1    3.92    1.95
   6   3   1    1.41    1.50
  -6   3  -1    2.69    1.61
   7  -3   1    0.72    0.20
   7  -3   1    0.63    0.19
  -7  -3  -1   -0.77    1.14
   7   3   1    0.88    0.27
   7   3   1    0.64    0.22
  -7   3  -1   -1.20    0.75
   7   3   1    0.38    1.93
   8  -3   1   16.42    1.00
   8  -3   1   15.86    0.92
  -8  -3  -1   16.72    5.04
   8   3   1   14.80    1.11
   8   3   1   14.55    4.88
  -8   3  -1    7.87    3.32
   8   3   1   16.14    1.15
   9  -3   1    0.08    0.15
   9  -3   1    0.07    0.13
  -9  -3  -1    2.02    2.49
   9   3   1   -3.60    1.87
   9   3   1   -0.03    0.19
  -9   3  -1    0.82    2.12
   9   3   1    0.04    0.23
  10  -3   1   25.55    1.49
  10  -3   1   25.49    1.36
 -10  -3  -1   24.37    9.36
  10   3   1   25.55    1.68
  10   3   1   28.36    1.72
 -10   3  -1   23.88    6.09
  10  -4  -1   11.20    4.85
  10  -4  -1   15.02    0.85
  10  -4  -1   14.51    1.00
 -10  -4   1   15.07    5.92
  10   4  -1   15.63    1.20
 -10   4   1   17.18    5.24
  10   4  -1   14.03    1.65
  10   4  -1    7.94    6.46
   9  -4  -1    1.47    0.27
   9  -4  -1    0.45    2.41
   9  -4  -1    0.90    0.26
   9   4  -1    0.71    0.30
   9   4  -1    1.20    0.36
  -9   4   1    2.97    2.55
   9   4  -1    2.70    3.14
  -8  -4   1   15.04    4.41
   8  -4  -1   19.25    1.07
   8  -4  -1   18.48    4.86
   8  -4  -1   19.77    0.93
   8   4  -1   20.38    1.32
   8   4  -1   18.41    1.27
  -8   4   1   19.44    4.72
   8   4  -1   14.98    4.37
  -7  -4   1    7.68    2.49
   7  -4  -1    3.17    0.28
   7  -4  -1    3.49    1.89
   7  -4  -1    4.40    0.41
   7  -4  -1    3.49    0.30
   7   4  -1    3.54    0.56
   7   4  -1    3.68    0.59
  -7   4   1    3.95    1.90
   7   4  -1   -0.65    1.93
  -6  -4   1    4.18    2.11
   6  -4  -1    3.70    0.28
   6  -4  -1    4.01    1.90
   6  -4  -1    3.52    0.26
   6  -4  -1    3.76    0.35
   6   4  -1    3.89    0.47
   6   4  -1    1.38    1.41
  -6   4   1    3.38    2.00
   6   4  -1    4.07    0.46
   5  -4  -1    7.77    0.48
   5  -4  -1    5.83    1.81
  -5  -4   1    5.37    2.11
  -5   4   1    9.72    2.53
  -5   4   1    7.83    0.58
   5   4  -1    7.80    0.63
   5   4  -1    6.45    0.59
   5   4  -1    9.05    3.19
   4  -4  -1   20.31    2.98
  -4  -4   1   12.45    3.08
   4  -4  -1   16.93    0.76
  -4  -4   1   19.67    1.04
   4   4  -1   15.78    3.79
  -4   4   1   17.16    0.85
  -4   4   1   19.51    3.09
   4   4  -1   15.83    0.95
   4   4  -1   16.14    0.94
  -3  -4   1    2.91    0.33
  -3  -4   1    3.00    1.49
   3  -4  -1    2.35    0.99
  -3   4   1    4.03    1.31
  -3   4   1    2.84    0.24
   3   4  -1    3.03    0.31
   3   4  -1    2.46    1.32
   3   4  -1    2.63    0.30
  -2  -4   1    0.40    0.53
  -2  -4   1    0.22    0.09
   2  -4  -1   -0.04    0.41
   2   4  -1   -0.14    0.33
   2   4  -1    0.09    0.07
   2   4  -1    0.06    0.04
  -1  -4   1    1.03    0.17
  -1  -4   1    1.05    0.67
   1   4  -1    1.21    0.19
  -1   4   1    1.34    0.44
  -1   4   1    1.56    0.42
   1   4  -1    1.23    0.14
   1   4  -1    1.21    0.67
   0  -4  -1    0.55    0.28
   0  -4   1    0.20    0.06
   0   4  -1    0.20    0.05
   0   4  -1    0.53    0.39
   0   4  -1    0.14    0.06
   0   4   1    0.22    0.06
   0   4   1    0.03    0.28
  -1  -4  -1    4.28    1.22
  -1   4  -1    5.41    0.29
   1   4   1    5.57    0.35
  -1   4  -1    7.11    1.15
   1   4   1    7.08    1.73
  -1   4  -1    6.49    1.04
  -2  -4  -1    0.24    0.09
  -2  -4  -1    0.22    0.48
   2  -4   1    0.68    0.38
   2   4   1    0.09    0.46
  -2   4  -1   -0.07    0.37
   2   4   1    0.26    0.09
   3  -4   1    0.18    0.05
  -3  -4  -1    0.63    0.68
  -3  -4  -1   -0.02    0.06
   3  -4   1   -0.58    0.38
   3   4   1    0.06    0.63
   3   4   1    0.35    0.12
  -3   4  -1    0.24    0.08
  -3   4  -1    0.43    0.57
  -4  -4  -1   30.21    4.69
  -4  -4  -1   32.83    1.51
   4  -4   1   32.17    1.22
   4  -4   1   36.46    4.17
   4  -4   1   30.37    1.26
   4  -4   1   30.55    1.15
   4   4   1   32.22    1.51
  -4   4  -1   32.37    4.33
   4   4   1   37.84    5.02
   4   4   1   31.14    1.51
   5  -4   1   10.90    0.52
   5  -4   1    8.66    2.39
   5  -4   1   11.06    0.57
   5  -4   1    9.44    0.58
  -5  -4  -1    8.30    2.68
   5   4   1   10.65    0.79
   5   4   1    9.81    0.77
   5   4   1    8.92    2.87
  -5   4  -1    8.76    2.59
   6  -4   1   13.64    0.73
   6  -4   1   15.24    0.70
   6  -4   1   18.20    4.02
  -6  -4  -1   13.91    4.10
   6  -4   1   13.09    0.78
   6   4   1   12.78    0.95
  -6   4  -1   20.83    4.68
   6   4   1   12.54    3.79
   6   4   1   13.07    0.96
   7  -4   1    1.61    0.29
   7  -4   1    1.94    1.57
  -7  -4  -1    4.11    2.52
   7  -4   1    2.28    0.34
   7  -4   1    1.89    0.24
   7   4   1    2.02    0.43
  -7   4  -1    2.01    1.76
   7   4   1    1.98    1.81
   7   4   1    2.18    0.45
   8  -4   1    9.70    0.78
   8  -4   1   11.27    0.78
   8  -4   1   11.58    0.70
   8  -4   1   11.19    3.74
  -8  -4  -1   11.41    3.73
   8   4   1   11.33    0.96
   8   4   1    3.81    3.35
  -8   4  -1   11.96    3.73
   8   4   1   10.99    0.95
   9  -4   1    3.06    0.38
  -9  -4  -1    2.53    2.87
   9  -4   1    3.23    2.94
   9  -4   1    3.50    0.52
  -9   4  -1    3.48    3.21
   9   4   1    1.66    3.41
   9   4   1    2.92    0.55
   9   4   1    2.86    0.57
  10  -4   1    5.32    4.81
 -10  -4  -1    5.66    3.99
  10  -4   1    5.13    0.51
  10  -4   1    5.31    0.59
 -10   4  -1   -3.62    3.26
  10   4   1    8.82    5.38
  10   4   1    7.50    1.54
  10   4   1    5.70    0.84
  10  -5  -1    0.42    0.20
 -10  -5   1   -0.11    3.73
 -10   5   1    0.21    3.69
  10   5  -1    0.47    0.32
  10   5  -1    0.90    0.29
  10   5  -1    5.07    6.04
   9  -5  -1   14.87    0.93
  -9  -5   1   10.52    5.40
   9  -5  -1   14.35    4.55
   9   5  -1   11.16    5.99
   9   5  -1   13.55    1.11
   9   5  -1   13.89    1.13
  -9   5   1    8.99    3.70
   8  -5  -1    4.87    2.27
   8  -5  -1    7.45    0.56
  -8  -5   1    1.54    3.48
  -8   5   1    4.96    2.69
   8   5  -1    6.72    0.73
   8   5  -1    3.18    4.28
   8   5  -1    5.96    0.66
  -7  -5   1    1.76    1.68
   7  -5  -1    3.91    0.37
   7  -5  -1    6.08    2.52
  -7   5   1    2.88    1.73
   7   5  -1    5.51    0.61
   7   5  -1    4.31    0.54
   7   5  -1    0.77    1.69
   6  -5  -1    4.40    0.36
   6  -5  -1    2.83    1.46
  -6  -5   1   -0.19    1.59
   6   5  -1    3.31    2.02
   6   5  -1    3.67    0.56
  -6   5   1    4.50    1.93
   6   5  -1    4.59    0.51
   5  -5  -1    8.28    2.12
   5  -5  -1    9.65    0.53
  -5  -5   1    7.07    2.76
  -5   5   1    9.65    2.63
   5   5  -1    9.30    0.72
   5   5  -1   10.41    0.78
   5   5  -1    8.37    2.73
  -5   5   1    9.79    0.65
   4  -5  -1   25.06    0.99
   4  -5  -1   30.08    3.34
  -4  -5   1   26.10    4.51
  -4   5   1   24.13    1.11
  -4   5   1   27.70    3.53
   4   5  -1   24.03    5.11
   4   5  -1   25.92    1.31
  -3  -5   1    6.03    2.06
   3  -5  -1    6.10    1.37
  -3  -5   1    4.58    0.42
  -3   5   1    3.95    0.28
   3   5  -1    4.58    0.41
  -3   5   1    4.19    1.46
   3   5  -1    4.03    0.39
   3   5  -1    4.24    1.86
  -2  -5   1    0.08    0.08
  -2  -5   1   -0.24    0.36
   2   5  -1   -0.07    0.71
   2   5  -1    0.05    0.07
   2   5  -1    0.00    0.04
  -2   5   1   -0.05    0.36
  -1  -5   1    0.53    0.54
  -1  -5   1    0.43    0.11
   1   5  -1    0.43    0.52
  -1   5   1    0.49    0.29
   1   5  -1    0.41    0.11
   1   5  -1    0.39    0.10
  -1   5   1    0.08    0.20
   0  -5  -1    3.26    0.90
   0  -5   1    2.52    0.86
   0  -5   1    2.77    0.19
   0   5  -1    2.60    0.22
   0   5  -1    2.64    0.94
   0   5   1    2.58    0.86
   0   5  -1    2.60    0.17
   0   5   1    2.58    0.20
  -1  -5  -1    1.99    0.97
  -1   5  -1    1.37    0.56
  -1   5  -1    1.93    0.68
   1   5   1    1.14    0.64
  -1   5  -1    1.30    0.14
   1   5   1    1.07    0.18
  -2  -5  -1    1.14    0.91
  -2  -5  -1    0.21    0.09
   2   5   1   -1.01    0.52
  -2   5  -1    0.16    0.05
  -2   5  -1    0.43    0.54
   2   5   1    0.13    0.09
  -3  -5  -1    0.73    0.17
   3  -5   1    1.37    0.68
  -3  -5  -1    0.85    0.89
  -3   5  -1    0.60    0.66
   3   5   1    0.71    0.18
   3   5   1    0.50    0.15
   3   5   1   -0.28    0.83
  -3   5  -1    0.77    0.13
  -4  -5  -1    3.90    0.42
  -4  -5  -1    3.40    1.74
   4  -5   1    4.18    0.28
   4  -5   1    3.80    1.37
  -4   5  -1    2.28    1.46
   4   5   1    2.84    0.51
   4   5   1    7.65    2.93
  -5  -5  -1   15.33    3.84
   5  -5   1   15.90    0.76
   5  -5   1   14.03    3.00
  -5   5  -1   12.60    3.08
   5   5   1   16.76    1.04
   5   5   1   14.78    0.99
   5   5   1   10.80    3.14
   6  -5   1    1.45    0.17
  -6  -5  -1    1.36    1.69
   6  -5   1    1.42    1.35
   6  -5   1    1.34    0.23
   6   5   1    0.46    1.49
  -6   5  -1    0.29    1.17
   6   5   1    1.70    0.35
   6   5   1    1.25    0.36
   7  -5   1   33.67    1.54
   7  -5   1   34.02    5.26
   7  -5   1   35.24    1.35
   7  -5   1   36.02    1.41
  -7  -5  -1   38.02    7.63
   7   5   1   35.72    1.88
   7   5   1   30.84    6.74
   7   5   1   35.91    1.90
  -7   5  -1   34.67    5.53
   8  -5   1   17.81    0.87
   8  -5   1   15.81    4.59
   8  -5   1   17.39    0.82
  -8  -5  -1   15.06    4.65
   8  -5   1   17.37    1.01
  -8   5  -1   28.17    6.04
   8   5   1   18.41    1.31
   8   5   1   18.56    1.30
   8   5   1   17.88    4.66
   9  -5   1    2.45    0.41
   9  -5   1    1.61    2.86
  -9  -5  -1    4.38    3.24
   9   5   1    1.33    3.24
   9   5   1    2.87    0.55
   9   5   1    3.32    0.62
  -9   5  -1    2.65    2.97
 -10  -5  -1   12.15    5.81
  10  -5   1   15.36    1.02
  10   5   1    5.05    5.94
  10   5   1   16.14    1.29
  10   5   1   14.32    1.23
   9  -6  -1   -1.47    2.16
   9  -6  -1    1.84    0.31
  -9  -6   1    0.75    2.98
   9   6  -1   -0.03    3.45
   9   6  -1    1.40    0.39
  -9   6   1    2.74    2.43
   9   6  -1    1.89    0.42
  -8  -6   1    6.13    3.62
   8  -6  -1    4.19    2.18
   8  -6  -1    2.15    0.33
  -8   6   1   -1.29    1.59
   8   6  -1    2.33    2.92
   8   6  -1    3.10    0.59
   8   6  -1    1.77    0.47
   7  -6  -1   28.00    4.46
   7   6  -1   30.35    1.72
   7   6  -1   36.83    6.16
   7   6  -1   29.77    1.87
  -7   6   1   31.60    4.72
  -6  -6   1    1.29    1.61
   6  -6  -1   -0.27    0.70
  -6   6   1    0.86    0.91
   6   6  -1    0.72    1.74
  -5  -6   1    9.43    3.30
   5  -6  -1    6.35    0.38
   5  -6  -1    6.16    1.80
   5   6  -1    6.09    0.58
  -5   6   1    5.79    1.86
   5   6  -1    6.80    2.90
  -5   6   1    6.18    0.49
   5   6  -1    6.16    0.60
   4  -6  -1    4.68    1.30
  -4  -6   1    4.23    1.83
   4   6  -1    5.05    0.49
   4   6  -1    5.10    0.50
   4   6  -1    3.92    1.90
  -4   6   1    5.37    1.50
  -3  -6   1    0.61    0.16
   3  -6  -1    0.81    0.46
  -3  -6   1   -0.74    0.71
  -3   6   1   -0.10    0.50
   3   6  -1    0.47    0.79
   3   6  -1    0.58    0.15
   3   6  -1    0.43    0.15
  -2  -6   1    0.52    0.14
  -2  -6   1   -0.12    0.45
  -2   6   1    0.32    0.49
   2   6  -1    0.08    0.68
  -2   6   1    0.52    0.41
   2   6  -1    0.62    0.16
   2   6  -1    0.28    0.12
  -1  -6   1    5.19    1.68
  -1  -6   1    4.24    0.32
   1   6  -1    4.54    0.31
   1   6  -1    3.98    0.34
  -1   6   1    6.30    0.99
   1   6  -1    3.21    1.34
  -1   6   1    5.95    0.97
   0  -6   1    1.26    0.62
   0  -6  -1    1.22    0.58
   0   6  -1    1.11    0.18
   0   6   1    1.01    0.58
   0   6  -1    0.97    0.10
   0   6   1    0.95    0.14
   0   6  -1    0.86    0.62
  -1  -6  -1    0.87    0.61
  -1   6  -1    0.17    0.43
   1   6   1    0.80    0.17
   1   6   1    2.14    0.88
  -1   6  -1    0.92    0.66
   1   6   1    1.20    0.20
  -1   6  -1    1.03    0.16
  -2  -6  -1    4.06    1.66
  -2  -6  -1    3.29    0.30
  -2   6  -1    4.29    1.39
   2   6   1    3.59    0.35
  -2   6  -1    3.69    0.25
   2   6   1    3.48    1.65
  -2   6  -1    3.80    1.14
   2   6   1    3.42    0.33
   3  -6   1   13.23    1.92
  -3  -6  -1   20.88    4.55
  -3  -6  -1   11.76    1.04
  -3   6  -1   11.32    0.57
   3   6   1   11.79    0.76
   3   6   1   12.46    0.78
   3   6   1   17.23    3.93
  -3   6  -1   15.66    3.08
   4  -6   1    2.39    1.01
   4   6   1    1.12    0.28
   4   6   1    0.83    0.23
  -4   6  -1    0.14    0.88
   4   6   1    1.66    1.21
   5  -6   1    5.20    0.35
  -5  -6  -1    5.50    2.04
   5  -6   1    5.79    1.79
  -5   6  -1    4.38    1.94
   5   6   1    6.35    0.60
   5   6   1    4.89    0.53
   5   6   1    2.40    1.98
   6  -6   1   -0.38    0.68
   6  -6   1    0.32    0.13
  -6  -6  -1   -1.70    1.01
   6   6   1    0.25    0.16
   6   6   1   -0.80    1.69
   6   6   1    0.10    0.13
  -6   6  -1   -0.27    1.12
  -7  -6  -1   11.33    3.94
   7  -6   1    9.69    0.81
   7  -6   1    9.48    3.08
   7   6   1   11.10    0.94
   7   6   1    9.36    0.96
  -7   6  -1    9.74    3.30
   7   6   1    9.04    3.89
   8  -6   1    0.88    0.21
  -8  -6  -1    1.89    2.56
   8  -6   1   -0.25    1.75
  -8   6  -1    0.05    1.48
   8   6   1    0.75    0.26
   8   6   1    2.61    2.70
   8   6   1    1.16    0.35
   9  -6   1   18.99    1.09
   9  -6   1   21.16    5.64
  -9  -6  -1   12.29    5.10
   9   6   1   21.53    1.50
   9   6   1   21.17    1.48
   9   6   1   24.43    7.01
  -9   6  -1   10.44    3.99
  -9  -7   1    7.03    4.21
   9  -7  -1   17.59    0.96
   9  -7  -1   14.43    3.95
   9   7  -1   16.82    1.31
  -9   7   1   13.28    4.42
   9   7  -1   16.68    1.34
   9   7  -1   18.42    5.94
  -8  -7   1    1.65    2.18
   8  -7  -1    2.38    2.14
   8   7  -1    3.83    3.09
  -8   7   1    1.01    1.64
  -7  -7   1    3.01    3.38
   7  -7  -1    8.68    2.63
   7  -7  -1    9.48    0.56
  -7   7   1   10.00    2.90
   7   7  -1    7.96    0.77
   7   7  -1   10.37    0.90
   7   7  -1    7.49    3.43
  -6  -7   1    9.01    3.45
   6  -7  -1    6.59    0.42
   6  -7  -1    9.09    2.28
   6   7  -1    6.44    0.67
   6   7  -1    7.47    0.70
   6   7  -1    5.84    2.75
  -6   7   1    6.26    2.27
   5  -7  -1    3.91    0.25
   5  -7  -1    2.28    1.02
  -5  -7   1    0.80    1.75
  -5   7   1    5.78    1.83
   5   7  -1    3.46    2.12
   5   7  -1    3.91    0.47
   5   7  -1    3.24    0.49
   4  -7  -1    0.38    0.47
  -4  -7   1   -0.74    0.74
  -4   7   1    0.08    0.05
   4   7  -1   -0.22    0.90
   4   7  -1   -0.06    0.07
   4   7  -1    0.15    0.11
  -4   7   1    0.63    0.62
  -3  -7   1    0.28    0.13
  -3  -7   1    1.69    1.14
  -3   7   1    0.71    0.50
   3   7  -1    0.28    0.80
   3   7  -1    0.23    0.12
  -3   7   1    0.81    0.38
  -2  -7   1    2.31    1.32
  -2  -7   1    1.59    0.27
   2   7  -1    1.70    0.26
   2   7  -1    0.95    0.21
  -2   7   1    2.82    0.76
   2   7  -1    0.72    0.83
  -2   7   1    0.81    0.56
  -1  -7   1   11.59    2.55
  -1  -7   1   10.88    0.58
  -1   7   1   12.98    1.62
   1   7  -1   11.83    0.59
  -1   7   1   12.51    1.64
   1   7  -1   10.70    0.64
   1   7  -1   15.13    3.18
   0  -7   1   -0.03    0.37
   0  -7  -1   -0.28    0.37
   0   7   1    0.07    0.05
   0   7  -1    0.05    0.06
   0   7   1   -0.54    0.53
   0   7  -1    0.02    0.05
   0   7  -1    0.24    0.48
  -1  -7  -1    1.75    1.06
  -1   7  -1    1.62    0.85
   1   7   1    1.81    0.27
   1   7   1    2.02    1.01
  -1   7  -1    0.94    0.73
  -1   7  -1    1.38    0.17
   1   7   1    1.73    0.24
  -2  -7  -1    7.04    2.38
  -2   7  -1    5.98    0.36
  -2   7  -1    6.47    1.81
   2   7   1    6.90    2.45
  -2   7  -1    9.22    1.79
   2   7   1    5.48    0.46
   2   7   1    6.20    0.47
  -3  -7  -1    1.72    1.24
   3   7   1    0.96    0.97
   3   7   1    0.42    0.16
  -3   7  -1    0.49    0.12
  -3   7  -1    0.24    0.65
   4  -7   1   -0.29    0.35
  -4  -7  -1   -0.64    0.70
  -4   7  -1   -1.23    0.78
   4   7   1    1.13    1.35
   4   7   1    0.07    0.11
  -4   7  -1    0.19    0.08
   4   7   1    0.17    0.10
  -5  -7  -1    6.20    2.50
   5  -7   1   11.13    2.45
   5   7   1   15.47    4.01
   5   7   1   10.15    0.82
   5   7   1   11.13    0.86
  -5   7  -1   11.13    2.85
  -6  -7  -1    0.69    1.68
   6  -7   1    1.34    1.15
   6  -7   1    1.60    0.22
   6   7   1    0.94    1.76
  -6   7  -1    0.79    1.36
   6   7   1    0.70    0.27
   6   7   1    1.37    0.34
   7  -7   1   11.15    0.64
   7  -7   1    9.95    2.94
  -7  -7  -1   10.80    3.79
   7   7   1   12.14    0.98
   7   7   1   10.28    0.93
  -7   7  -1    9.10    2.85
   7   7   1    6.15    3.12
  -8  -7  -1    2.68    2.82
   8  -7   1    4.77    0.43
   8  -7   1    3.34    2.18
   8   7   1    1.99    2.91
   8   7   1    5.04    0.79
   8   7   1    6.09    0.72
  -8   7  -1    5.00    2.87
  -9  -7  -1    5.58    3.92
   9  -7   1    1.00    0.26
   9  -7   1    0.68    2.73
   9   7   1    1.23    0.34
  -9   7  -1   -2.49    2.12
   9   7   1    1.40    0.42
   9  -8  -1    1.00    0.23
  -9  -8   1    0.38    2.95
   9  -8  -1   -0.87    2.73
  -9   8   1    4.09    2.76
   9   8  -1    0.53    0.34
   9   8  -1    0.43    0.24
   9   8  -1    9.03    5.18
  -8  -8   1    2.94    3.67
   8  -8  -1    2.70    2.23
  -8   8   1    1.74    1.89
   8   8  -1   -3.35    3.11
   8   8  -1    4.27    0.70
   8   8  -1    3.42    0.66
  -7  -8   1    8.97    3.97
   7  -8  -1    5.24    2.07
   7  -8  -1    6.46    0.42
   7   8  -1    6.67    0.72
   7   8  -1    6.09    0.66
  -7   8   1    7.21    2.41
   7   8  -1   11.27    4.75
   6  -8  -1    0.95    1.22
  -6  -8   1    1.31    1.68
   6   8  -1   -0.02    2.04
  -6   8   1    3.28    1.59
   5  -8  -1   16.36    2.07
  -5  -8   1    9.75    3.02
   5   8  -1   15.56    4.61
   5   8  -1   14.37    0.99
   5   8  -1   14.49    1.04
  -5   8   1   16.73    2.61
  -4  -8   1    7.89    2.98
  -4   8   1    8.97    1.98
  -4   8   1    6.98    0.42
   4   8  -1    5.78    2.18
   4   8  -1    7.04    0.63
   4   8  -1    6.58    0.57
  -3  -8   1    3.59    0.39
  -3  -8   1    5.59    2.12
  -3   8   1    4.21    0.94
  -3   8   1    3.72    0.26
  -3   8   1    3.34    1.08
   3   8  -1    3.77    0.42
   3   8  -1    4.24    0.41
   3   8  -1    3.71    1.75
  -2  -8   1   13.26    0.73
   2   8  -1   12.82    0.71
  -2   8   1   11.08    1.52
   2   8  -1   10.67    2.66
   2   8  -1   13.21    0.80
  -2   8   1   11.95    1.42
  -1  -8   1    3.03    1.45
  -1  -8   1    2.90    0.25
  -1   8   1    3.14    1.16
   1   8  -1    2.98    0.32
  -1   8   1    3.16    0.25
   1   8  -1    3.43    1.87
  -1   8   1    3.92    1.08
   1   8  -1    3.35    0.28
   0  -8   1    4.41    1.39
   0  -8  -1    5.67    1.49
   0   8   1    3.72    0.31
   0   8   1    3.68    1.26
   0   8  -1    6.35    1.96
   0   8   1    3.90    0.26
   0   8  -1    4.10    0.34
   0   8  -1    3.72    0.24
  -1  -8  -1    2.56    2.34
  -1   8  -1    4.60    1.42
  -1   8  -1    4.32    0.32
   1   8   1    7.14    2.74
   1   8   1    4.05    0.36
   1   8   1    4.16    0.33
  -1   8  -1    3.49    1.46
  -2  -8  -1    1.31    0.90
  -2   8  -1    2.62    0.90
   2   8   1    2.14    0.35
  -2   8  -1    1.17    0.78
   2   8   1    1.83    0.30
  -2   8  -1    2.02    0.21
   2   8   1    0.73    0.81
  -3  -8  -1    1.13    0.93
  -3   8  -1    3.03    1.26
  -3   8  -1    2.06    0.76
   3   8   1    2.10    0.35
   3   8   1    2.30    1.29
  -3   8  -1    2.15    0.22
   3   8   1    2.50    0.39
  -4  -8  -1   -0.37    1.07
  -4   8  -1    1.05    0.20
   4   8   1    0.89    0.22
  -4   8  -1    1.04    1.07
   4   8   1    0.10    1.12
   4   8   1    0.61    0.23
  -5  -8  -1    0.86    1.43
   5  -8   1    0.89    0.72
   5   8   1    2.72    2.49
   5   8   1    1.38    0.37
   5   8   1    1.75    0.39
  -5   8  -1    0.79    1.16
   6  -8   1   30.57    3.69
  -6  -8  -1   21.18    5.30
   6   8   1   19.46    5.32
  -6   8  -1   30.43    4.44
   6   8   1   25.66    1.53
   6   8   1   27.92    1.83
   7  -8   1    4.38    1.82
   7  -8   1    4.97    0.37
  -7  -8  -1    2.87    2.78
   7   8   1    5.05    0.78
   7   8   1    0.45    2.10
   7   8   1    5.63    0.65
  -7   8  -1    7.92    2.72
   8  -8   1    3.35    2.26
  -8  -8  -1    5.46    3.26
   8   8   1    4.25    0.73
  -8   8  -1    6.12    2.78
   8   8   1    4.06    0.69
   9  -8   1    9.53    0.66
   9  -8   1    5.42    3.19
   9   8   1   11.48    1.08
   9   8   1    8.84    0.97
  -9   8  -1   13.79    4.06
   9   8   1   10.69    5.07
   8  -9  -1    4.66    2.05
  -8  -9   1   -0.33    3.13
  -8   9   1    4.14    2.43
   8   9  -1    4.43    4.44
   8   9  -1    6.00    0.87
   8   9  -1    5.84    0.87
   7  -9  -1    1.94    1.17
  -7  -9   1    2.13    2.35
   7   9  -1    0.83    0.29
   7   9  -1    1.36    0.36
  -7   9   1    3.05    1.57
  -6  -9   1   24.17    5.75
   6  -9  -1   25.52    5.05
  -6   9   1   20.60    4.82
   6   9  -1   18.56    1.54
   6   9  -1   22.30    1.41
   6   9  -1   18.30    4.74
  -5  -9   1    3.62    2.51
   5   9  -1    2.31    0.46
   5   9  -1    2.49    0.44
  -5   9   1    4.23    1.62
   5   9  -1    7.20    2.59
  -4  -9   1    2.32    1.32
   4   9  -1    2.84    2.07
   4   9  -1    2.82    0.45
  -4   9   1    2.64    0.25
  -4   9   1    2.28    1.02
  -4   9   1    3.27    0.89
   4   9  -1    2.72    0.44
  -3  -9   1    0.91    1.08
  -3  -9   1    1.20    0.25
   3   9  -1    1.59    0.35
  -3   9   1    1.18    0.66
   3   9  -1    1.44    0.28
  -3   9   1    1.73    0.17
   3   9  -1    1.20    1.01
  -3   9   1    1.92    0.61
  -2  -9   1    2.66    1.33
  -2  -9   1    2.07    0.26
  -2   9   1    2.96    0.93
   2   9  -1    2.32    0.38
   2   9  -1    1.32    1.15
  -2   9   1    2.44    0.22
  -2   9   1    2.37    0.79
   2   9  -1    2.12    0.26
  -1  -9   1    0.63    0.71
  -1   9   1    1.33    0.20
  -1   9   1    0.32    0.58
  -1   9   1    1.33    0.76
   1   9  -1    1.30    0.89
   1   9  -1    1.09    0.19
   1   9  -1    1.36    0.26
   0  -9   1    0.08    0.45
   0  -9  -1    0.20    0.39
   0   9   1    1.34    0.84
   0   9  -1   -0.32    0.46
   0   9   1    1.25    0.21
   0   9  -1    0.60    0.16
   0   9   1    0.62    0.11
  -1  -9  -1   10.53    2.36
   1   9   1    7.65    0.56
   1   9   1    8.27    0.51
  -1   9  -1    8.18    0.51
   1   9   1    9.17    2.45
  -1   9  -1    9.95    2.09
  -1   9  -1    9.15    1.98
  -2  -9  -1    7.56    2.22
  -2   9  -1    9.38    0.52
   2   9   1    8.22    0.57
  -2   9  -1    7.31    1.86
   2   9   1    6.52    2.05
  -2   9  -1    8.45    1.87
   2   9   1    8.41    0.62
  -3  -9  -1    2.43    1.50
   3   9   1    2.49    0.40
   3   9   1    2.26    0.40
  -3   9  -1    2.40    0.24
   3   9   1    3.52    1.71
  -3   9  -1    0.96    1.07
  -3   9  -1    2.88    1.04
  -4  -9  -1    8.83    2.85
  -4   9  -1   11.62    1.84
   4   9   1    8.70    3.53
  -4   9  -1    9.92    2.58
  -4   9  -1   10.94    0.62
   4   9   1   11.75    0.87
   4   9   1   10.90    0.80
  -5  -9  -1    6.41    2.51
   5   9   1    2.14    0.41
   5   9   1    2.15    0.42
  -5   9  -1    3.03    1.57
   5   9   1    3.55    1.99
  -6  -9  -1    3.06    2.40
   6  -9   1    4.61    1.59
   6   9   1    1.58    2.41
   6   9   1    3.82    0.59
   6   9   1    3.47    0.73
  -6   9  -1    3.20    1.86
   7  -9   1    3.16    1.33
   7   9   1    3.94    0.64
   7   9   1    4.17    0.72
  -7   9  -1    8.48    2.76
   8  -9   1   12.42    4.20
  -8  -9  -1    6.15    4.41
  -8   9  -1   10.89    5.51
   8   9   1   11.56    1.04
   8   9   1   12.05    1.10
   8   9   1   13.86    5.44
   8 -10  -1    6.70    2.12
   8  10  -1    8.08    0.94
   8  10  -1    7.47    0.80
  -8  10   1    3.54    2.18
  -7 -10   1    0.49    2.24
   7  10  -1   -0.30    2.87
  -7  10   1   -1.64    1.19
   7  10  -1    0.21    0.16
   7  10  -1   -0.03    0.22
  -6 -10   1    0.10    2.33
  -6  10   1    1.18    0.82
  -6  10   1    0.78    1.14
   6  10  -1    2.07    0.41
   6  10  -1    1.22    0.36
  -5 -10   1   -0.06    1.72
  -5  10   1   -0.13    0.48
  -5  10   1    0.21    0.87
   5  10  -1    0.26    0.19
   5  10  -1   -0.21    2.88
  -4 -10   1    2.14    1.95
   4  10  -1    0.43    1.69
   4  10  -1    1.98    0.37
  -4  10   1    1.76    0.25
  -4  10   1    2.52    0.67
   4  10  -1    1.90    0.38
  -4  10   1    0.62    0.77
  -3 -10   1   -0.40    0.70
  -3 -10   1    1.33    0.26
  -3  10   1    1.12    0.19
  -3  10   1    1.09    0.60
  -3  10   1    0.95    0.68
   3  10  -1    1.14    0.23
   3  10  -1    0.98    0.26
   3  10  -1    1.98    1.66
  -2 -10   1    4.29    1.77
   2  10  -1    4.41    2.05
  -2  10   1    3.80    0.30
   2  10  -1    4.02    0.37
   2  10  -1    3.80    0.43
  -2  10   1    2.84    0.96
  -2  10   1    4.09    1.22
  -1 -10   1   -0.19    0.55
   1  10  -1   -0.05    0.07
  -1  10   1    0.02    0.07
   1  10  -1    0.01    0.06
  -1  10   1   -0.50    0.45
   1  10  -1   -0.60    0.62
  -1  10   1   -0.06    0.47
   0 -10   1    3.07    1.21
   0 -10  -1    3.32    1.12
   0  10   1    2.84    0.31
   0  10   1    2.35    1.30
   0  10  -1    2.84    1.16
   0  10  -1    2.77    0.31
  -1 -10  -1   -0.58    0.46
   1  10   1    0.89    0.90
   1  10   1    0.53    0.14
  -1  10  -1    0.31    0.75
   1  10   1    0.19    0.11
  -1  10  -1    0.67    0.15
  -1  10  -1    0.15    0.64
  -2 -10  -1    2.50    1.29
   2  10   1    2.84    1.55
  -2  10  -1    1.27    0.88
  -2  10  -1    1.69    0.25
   2  10   1    1.68    0.30
  -2  10  -1    2.78    1.02
   2  10   1    1.75    0.32
  -3 -10  -1    5.04    1.92
  -3  10  -1    7.65    1.81
  -3  10  -1    6.73    0.46
   3  10   1    6.42    0.61
  -3  10  -1    5.32    1.68
   3  10   1    5.26    2.23
   3  10   1    7.18    0.58
  -4 -10  -1    4.92    2.05
   4  10   1    4.93    0.54
  -4  10  -1    4.78    0.39
  -4  10  -1    7.63    1.70
  -4  10  -1    2.77    1.28
   4  10   1    2.85    2.28
   4  10   1    4.26    0.49
  -5 -10  -1   -1.28    1.66
  -5  10  -1   -1.51    0.90
   5  10   1    0.53    0.20
  -5  10  -1    0.11    0.15
  -5  10  -1   -0.29    0.59
   5  10   1    0.14    0.17
  -6 -10  -1   13.40    4.26
   6  10   1   16.70    1.23
   6  10   1   17.09    1.18
   6  10   1   17.32    5.14
  -6  10  -1   17.92    4.23
  -7 -10  -1    5.15    3.16
   7  10   1    0.40    2.35
  -7  10  -1   -0.93    1.81
   7  10   1    0.39    0.23
   7  10   1    0.20    0.15
   8 -10   1    4.12    1.84
   8  10   1    3.16    0.67
   8  10   1    3.74    0.67
  -8  10  -1    2.65    2.62
   7  11  -1    3.98    0.62
   7  11  -1    4.02    0.71
  -6 -11   1    8.38    3.32
  -6  11   1    9.85    2.00
   6  11  -1    9.40    3.76
   6  11  -1   11.64    0.93
   6  11  -1   11.64    1.02
  -5 -11   1    3.92    2.19
   5  11  -1    2.12    0.43
   5  11  -1    1.55    0.37
  -5  11   1    1.99    0.83
   5  11  -1    0.61    2.32
  -5  11   1    1.95    0.70
   4  11  -1    0.31    0.18
   4  11  -1    0.78    0.26
  -4  11   1    0.65    0.15
  -3 -11   1    1.37    1.07
  -3  11   1    2.94    0.81
   3  11  -1    3.11    0.36
  -3  11   1    3.12    0.28
   3  11  -1    2.25    0.44
  -2 -11   1   10.46    2.72
  -2  11   1    6.29    1.47
  -2  11   1    8.07    0.50
  -2  11   1    6.67    1.52
   2  11  -1    8.67    0.68
   2  11  -1    8.46    0.57
   2  11  -1   10.46    3.44
  -1 -11   1   -0.32    0.75
   1  11  -1    0.52    0.12
  -1  11   1    0.97    0.87
  -1  11   1    0.41    0.13
  -1  11   1    0.93    0.77
   1  11  -1    1.04    0.22
   0 -11  -1    1.72    0.89
   0  11   1    1.48    1.14
   0  11   1    1.66    0.29
   0  11  -1    1.51    0.29
  -1 -11  -1    1.04    0.70
   1  11   1    0.27    0.10
   1  11   1    0.67    0.21
  -1  11  -1    0.63    0.82
  -1  11  -1    0.47    0.15
  -1  11  -1    0.02    0.76
  -2 -11  -1    1.63    1.21
  -2  11  -1    0.10    1.05
   2  11   1    1.56    0.27
  -2  11  -1    1.96    0.24
  -2  11  -1    1.14    0.99
   2  11   1    1.85    0.34
  -3 -11  -1    4.19    1.84
  -3  11  -1    3.19    0.32
   3  11   1    3.45    0.53
   3  11   1    3.30    0.47
  -3  11  -1    4.38    1.47
  -3  11  -1    2.20    1.01
  -4 -11  -1    0.47    1.34
   4  11   1    0.11    0.13
  -4  11  -1   -0.78    0.96
   4  11   1   -2.86    1.39
   4  11   1   -0.17    0.11
  -4  11  -1    0.45    0.73
  -4  11  -1    0.16    0.10
  -5 -11  -1    7.76    3.13
   5  11   1   13.75    1.00
  -5  11  -1    8.39    1.86
  -5  11  -1   11.92    2.57
   5  11   1   14.20    1.07
  -5  11  -1   13.76    0.78
  -6  11  -1    3.25    1.70
   6  11   1    2.78    4.08
   6  11   1    4.43    0.75
   6  11   1    4.17    0.67
   7  11   1    8.46    0.87
  -7  11  -1    5.34    2.46
   7  11   1    9.84    0.95
   7  12  -1    4.37    0.68
   7  12  -1    3.88    0.69
   6  12  -1    3.12    0.54
   6  12  -1    4.07    0.74
  -5  12   1   13.00    0.74
   5  12  -1   12.81    0.94
   5  12  -1   12.41    1.03
  -4 -12   1    2.69    2.01
   4  12  -1    0.86    2.38
   4  12  -1    0.35    0.18
  -3 -12   1    0.88    1.37
   3  12  -1    0.50    0.20
   3  12  -1   -0.43    1.33
   3  12  -1    0.58    0.17
  -3  12   1    0.54    0.14
  -2 -12   1    5.80    1.97
  -2  12   1    3.87    0.35
  -2  12   1    3.85    1.12
   2  12  -1    3.75    0.38
   2  12  -1    4.78    0.48
  -2  12   1    4.18    1.13
  -1  12   1    4.79    1.48
  -1  12   1    3.93    0.37
   1  12  -1    3.51    0.41
  -1  12   1    4.36    1.56
   1  12  -1    3.54    0.30
   0  12   1    3.21    1.51
   0  12   1    2.45    0.37
   0  12  -1    2.81    0.34
  -1  12  -1    3.78    1.24
  -1  12  -1    2.11    1.17
   1  12   1    1.95    0.23
   1  12   1    2.44    0.40
  -1  12  -1    2.80    0.34
  -2 -12  -1    4.10    1.68
  -2  12  -1    6.19    0.47
   2  12   1    6.09    0.52
  -2  12  -1    4.67    2.44
   2  12   1    5.89    0.57
  -3 -12  -1    0.47    1.64
   3  12   1    1.67    0.37
  -3  12  -1    0.85    0.97
  -3  12  -1    1.18    1.08
   3  12   1    0.33    1.53
  -3  12  -1    1.58    0.27
   3  12   1    1.59    0.30
  -4  12  -1    5.15    1.44
  -4  12  -1    5.24    1.83
   4  12   1    5.64    1.14
   4  12   1    2.15    3.18
   4  12   1    4.38    0.51
   5  12   1    6.38    0.72
   5  12   1    5.53    0.59
  -5  12  -1    4.38    1.80
  -5  12  -1    5.55    0.49
   6  12   1    1.19    0.41
   6  12   1    0.34    0.28
  -6  12  -1    2.42    1.60
  -7  12  -1    2.69    2.55
   7  12   1    4.34    0.72
   7  12   1    5.64    0.84
   6  13  -1   -0.10    0.23
   6  13  -1   -0.28    0.16
   5  13  -1    2.42    0.53
  -5  13   1    3.72    0.36
   5  13  -1    2.93    0.49
  -4  13   1    2.63    0.30
   4  13  -1    2.70    0.43
   4  13  -1    2.04    0.49
   3  13  -1    5.63    0.52
   3  13  -1    7.37    1.31
  -3  13   1    6.85    0.49
  -2 -13   1    5.53    3.08
  -2  13   1    1.58    0.86
   2  13  -1    1.95    2.45
  -2  13   1    2.17    0.30
  -2  13   1    1.68    0.81
   2  13  -1    1.90    0.29
   2  13  -1    1.61    0.34
  -1 -13   1    0.38    0.90
  -1  13   1    0.25    0.12
   1  13  -1   -0.69    1.31
   1  13  -1    0.12    0.13
  -1  13   1    0.95    1.13
  -1  13   1   -1.26    0.76
   0  13   1    1.62    0.30
   0  13  -1    2.70    1.28
   0  13  -1    1.63    0.30
   0  13  -1   -0.30    1.02
   0  13   1    0.01    1.15
  -1 -13  -1    0.05    0.84
  -1  13  -1    2.49    1.22
   1  13   1    1.76    0.20
   1  13   1   -0.11    1.35
   1  13   1    1.26    0.32
  -1  13  -1    1.54    0.30
   2  13   1    0.51    0.23
  -2  13  -1    0.72    0.18
  -2  13  -1    2.08    1.12
  -2  13  -1   -0.49    1.08
   2  13   1    0.59    0.17
  -3  13  -1   -0.48    0.74
  -3  13  -1    0.65    0.20
   3  13   1    0.42    0.19
   3  13   1    0.94    0.27
  -3  13  -1    0.44    1.02
  -4  13  -1    1.11    0.23
   4  13   1    1.43    0.32
   4  13   1    1.11    0.30
  -4  13  -1    3.06    1.40
   5  13   1    1.85    0.39
  -5  13  -1    2.99    0.35
  -5  13  -1    0.70    1.51
   5  13   1    1.95    0.50
   6  13   1    0.07    0.24
   6  13   1   -0.14    0.21
   5  14  -1    0.52    0.29
   5  14  -1    0.74    0.29
   4  14  -1    0.04    0.20
   4  14  -1    0.58    0.18
  -4  14   1    0.32    0.17
   3  14  -1    2.14    0.45
  -3  14   1    1.80    0.34
   3  14  -1    1.24    0.26
  -2  14   1    0.62    0.19
   2  14  -1    0.05    0.12
   2  14  -1    0.21    0.16
   1  14  -1    0.02    0.13
  -1  14   1    0.10    0.13
  -1  14   1    0.54    0.91
   0  14  -1   -2.58    1.39
   0  14  -1    1.86    0.37
   0  14   1    1.51    0.34
   0  14   1    2.15    1.20
  -1  14  -1    0.14    0.12
  -1  14  -1   -1.41    1.16
   1  14   1    0.30    0.15
   2  14   1    0.69    0.21
  -2  14  -1    0.29    1.18
  -2  14  -1    1.13    0.24
   2  14   1    1.48    0.34
  -3  14  -1    2.65    0.38
   3  14   1    2.45    0.39
   3  14   1    1.86    0.41
  -3  14  -1    4.21    1.93
   4  14   1    3.91    0.64
  -4  14  -1    3.51    0.40
   4  14   1    3.72    0.45
  -5  14  -1    0.09    0.17
   5  14   1    0.44    0.30
   5  14   1   -0.35    0.16
   3  15  -1    1.95    0.47
   3  15  -1    2.38    0.39
   2  15  -1    0.24    0.14
   2  15  -1    0.21    0.17
  -2  15   1    0.68    0.18
  -1  15   1    5.31    0.50
  -1  15   1    3.51    2.05
   1  15  -1    4.07    0.58
   0  15   1    1.52    0.31
   0  15   1    1.26    1.33
   0  15  -1    1.63    0.33
   0  15  -1    3.67    1.68
   1  15   1    1.44    0.32
  -1  15  -1    1.15    1.52
  -1  15  -1    2.80    0.41
   2  15   1    3.12    0.34
  -2  15  -1    3.80    0.42
   2  15   1    3.22    0.55
   3  15   1    4.01    0.63
   3  15   1    3.50    0.41
  -3  15  -1    3.78    0.45
  10   0  -2    0.21    3.97
  10   0  -2    1.10    0.32
  10   0  -2    0.93    0.28
 -10   0   2    0.16    2.90
   9   0  -2    0.23    0.15
   9   0  -2    0.09    0.14
   9   0  -2    0.97    2.72
  -9   0   2   -0.04    1.71
   8   0  -2   51.36    7.92
  -8   0   2   50.27    6.84
   8   0  -2   48.97    2.28
   8   0  -2   53.79    2.26
   7   0  -2    0.21    0.11
   7   0  -2    0.01    0.10
  -7   0   2   -1.72    0.93
   7   0  -2    0.78    1.50
   6   0  -2    9.31    0.64
   6   0  -2    5.49    2.46
  -6   0   2    7.60    2.74
   6   0  -2    8.85    0.66
   5   0  -2    0.22    0.08
   5   0  -2    0.19    0.09
   5   0  -2    0.82    1.03
  -5   0   2   -0.02    0.80
   4   0  -2   65.86    2.51
   4   0  -2   73.61    6.73
  -4   0   2   73.81    6.51
   4   0  -2   66.99    2.49
   3   0  -2    0.00    0.34
   3   0  -2   -0.01    0.02
  -3   0   2    0.03    0.05
  -3   0   2    0.03    0.31
  -3   0   2   -0.07    0.03
   3   0  -2    0.40    0.10
  -2   0   2   46.26    1.66
  -2   0   2   47.80    3.71
   2   0  -2   46.38    1.63
  -2   0   2   45.62    1.67
   2   0  -2   46.70    1.65
  -1   0   2    0.16    0.04
  -1   0   2    0.00    0.13
   1   0  -2    0.04    0.02
   1   0  -2    0.13    0.04
  -1   0   2    0.04    0.02
   1   0   2    0.30    0.30
  -1   0  -2   -0.02    0.20
  -2   0  -2   52.09    4.49
   2   0   2   50.44    1.88
   2   0   2   55.92    4.51
   3   0   2    0.63    0.80
  -3   0  -2    0.71    0.17
  -4   0  -2   73.68    2.86
  -4   0  -2   79.36    7.36
   4   0   2   92.62    7.84
   4   0   2   73.28    2.83
   5   0   2   -1.36    0.94
   5   0   2    0.19    0.12
  -5   0  -2   -0.20    0.61
   6   0   2   15.65    0.96
  -6   0  -2   10.50    3.53
   6   0   2   10.38    3.44
   6   0   2   15.46    0.97
   7   0   2    1.12    1.49
  -7   0  -2    1.97    1.44
   8   0   2   49.68    2.28
   8   0   2   46.54    7.48
   8   0   2   44.24    2.16
  -8   0  -2   54.90    7.84
   9   0   2    0.16    0.15
  -9   0  -2    0.53    2.33
   9   0   2    2.44    2.78
  10   0   2   -6.17    3.78
 -10   0  -2    4.16    3.90
  10   0   2    0.43    0.19
  10   0   2    0.12    0.19
  10  -1  -2    3.66    4.14
  10   1  -2    2.90    3.58
 -10   1   2    5.31    3.15
  -9  -1   2   15.67    5.32
   9  -1  -2   19.53    1.12
   9  -1  -2   18.15    1.18
   9   1  -2   20.46    1.29
  -9   1   2   20.61    5.29
   9   1  -2   18.80    1.19
   9   1  -2   28.37    7.31
   8  -1  -2   -1.72    1.65
  -8  -1   2    0.22    1.61
   8  -1  -2    0.07    0.11
   8  -1  -2    0.08    0.13
  -8   1   2    0.32    1.75
   8   1  -2    0.14    0.12
   8   1  -2    0.14    0.12
   8   1  -2    2.31    2.10
   7  -1  -2   76.59    2.97
   7  -1  -2   77.82    8.59
  -7  -1   2   78.69    8.50
   7  -1  -2   77.21    2.89
   7   1  -2   74.70    2.98
   7   1  -2   73.77    3.03
  -7   1   2   65.38    7.48
   7   1  -2   69.35    8.26
   6  -1  -2    5.14    0.47
   6  -1  -2    5.14    0.44
   6  -1  -2    5.07    2.09
  -6  -1   2   10.78    3.12
   6   1  -2    6.29    2.63
   6   1  -2    4.87    0.47
   6   1  -2    5.60    0.53
  -6   1   2    5.36    2.13
   5  -1  -2  164.34    5.67
   5  -1  -2  160.41    5.59
  -5  -1   2  166.97   11.89
   5   1  -2  166.61    5.73
  -5   1   2  193.49   12.24
   5   1  -2  174.03   12.46
  -5   1   2  170.68    5.80
   5   1  -2  156.19    5.80
  -4  -1   2   10.61    0.67
   4  -1  -2    9.68    0.58
  -4  -1   2   11.33    2.98
   4  -1  -2    9.04    0.53
   4   1  -2    9.74    0.61
  -4   1   2   12.66    2.93
  -4   1   2   10.08    0.62
   4   1  -2   12.85    3.40
   4   1  -2    9.55    0.61
  -3  -1   2  244.15    7.80
  -3  -1   2  236.90    7.80
  -3  -1   2  244.65   12.47
   3  -1  -2  230.87    7.62
   3  -1  -2  235.45    7.67
   3   1  -2  236.77   12.58
   3   1  -2  234.26    7.74
   3   1  -2  241.01    7.74
  -3   1   2  238.32    7.71
  -3   1   2  231.11   11.63
  -3   1   2  238.50    7.73
  -2  -1   2    2.65    0.23
  -2  -1   2    3.15    0.25
   2  -1  -2    2.50    0.85
   2  -1  -2    3.08    0.18
   2  -1  -2    2.85    0.21
  -2  -1   2    2.89    1.10
  -2   1   2    2.87    0.21
  -2   1   2    2.46    0.87
  -2   1   2    3.36    0.22
   2   1  -2    2.92    0.23
   2   1  -2    2.74    1.02
   2   1  -2    2.38    0.22
   1  -1  -2   19.07    0.69
   1  -1  -2   21.30    1.55
  -1  -1   2   20.36    1.96
  -1  -1   2   18.72    0.74
  -1  -1   2   18.57    0.74
   1   1  -2   21.54    2.03
  -1   1   2   19.75    1.43
  -1   1   2   19.08    0.70
  -1   1   2   18.77    0.65
   0  -1   2   14.77    0.52
   0  -1  -2   14.40    1.15
   0  -1  -2   14.03    0.55
   0  -1   2   13.85    0.53
   0  -1   2   15.69    1.38
   0   1   2   14.22    0.55
   0   1   2   15.77    1.16
   0   1  -2   14.37    0.54
   0   1  -2   15.51    1.37
   0   1  -2   12.99    0.52
  -1  -1  -2   20.51    2.21
   1  -1   2   19.60    0.73
   1  -1   2   21.63    2.00
   1  -1   2   18.90    0.76
  -1   1  -2   22.42    2.12
  -1   1  -2   19.33    0.73
   1   1   2   20.22    2.17
   2  -1   2    3.04    1.14
   2  -1   2    3.10    0.25
  -2  -1  -2    1.99    0.97
   2   1   2    2.60    1.11
  -2   1  -2    2.49    1.05
   2   1   2    2.95    0.26
   3  -1   2  210.11    7.18
  -3  -1  -2  209.71   12.28
  -3  -1  -2  211.12    7.23
   3  -1   2  240.12   12.31
   3   1   2  213.07    7.24
   3   1   2  241.92   12.80
  -3   1  -2  225.06   12.30
   4  -1   2    9.94    0.61
  -4  -1  -2    9.04    0.63
   4  -1   2    7.37    2.37
   4   1   2    8.82    0.61
  -4   1  -2    9.70    2.84
   5  -1   2  167.68   12.02
   5  -1   2  145.62    5.26
  -5  -1  -2  152.02   12.17
  -5   1  -2  159.78   12.08
   5   1   2  137.01    5.62
   5   1   2  180.20   12.81
   6  -1   2    7.62    2.62
   6  -1   2    7.74    0.61
   6  -1   2    8.33    0.65
  -6  -1  -2    7.20    2.67
   6   1   2    8.00    3.00
   6   1   2    8.18    0.68
   6   1   2    7.00    0.65
  -6   1  -2    3.27    2.49
   7  -1   2   74.63    8.23
   7  -1   2   82.28    3.15
  -7  -1  -2   63.33    8.17
   7  -1   2   75.64    3.05
   7   1   2   74.60    3.16
  -7   1  -2   67.78    8.12
   7   1   2   80.96    8.80
   7   1   2   79.98    3.18
   8  -1   2    0.70    0.24
   8  -1   2    1.25    0.33
   8  -1   2   -1.83    1.25
  -8  -1  -2    3.11    2.67
   8   1   2    1.09    0.29
  -8   1  -2    3.67    2.65
   8   1   2    0.70    0.26
   8   1   2    0.33    2.20
  -9  -1  -2    7.27    4.63
   9  -1   2   15.24    1.11
   9  -1   2   16.00    1.07
   9  -1   2   16.66    5.27
   9   1   2   15.73    1.17
   9   1   2   18.57    5.39
   9   1   2   17.58    1.19
  -9   1  -2   19.53    5.61
 -10  -1  -2   -4.00    3.64
  10  -1   2    0.45    0.24
  10  -1   2    0.70    0.30
  10  -1   2    3.18    3.63
  10   1   2    0.91    0.29
 -10   1  -2   -1.33    2.51
  10   1   2   -1.07    4.01
  10   1   2    0.16    0.22
  10  -2  -2   -2.71    3.30
 -10  -2   2   -0.99    3.43
 -10   2   2   -1.33    2.56
  10   2  -2   -0.04    3.79
   9  -2  -2    7.37    0.60
  -9  -2   2    4.61    2.64
   9  -2  -2    7.42    0.67
   9   2  -2   11.21    4.97
   9   2  -2    7.45    0.75
  -9   2   2    8.92    3.55
   9   2  -2    7.99    0.76
  -8  -2   2    8.85    3.03
   8  -2  -2    6.37    0.58
   8  -2  -2    5.94    0.51
   8   2  -2    6.01    1.07
   8   2  -2    6.30    0.63
   8   2  -2    4.87    3.24
  -8   2   2    5.84    2.73
   7  -2  -2    5.62    0.52
  -7  -2   2    6.87    2.80
   7  -2  -2    5.99    0.49
   7   2  -2    6.45    2.95
   7   2  -2    5.67    0.59
  -7   2   2    5.55    2.44
   7   2  -2    7.44    0.64
  -6  -2   2   60.52    6.83
   6  -2  -2   67.41    2.58
   6  -2  -2   70.64    2.51
   6  -2  -2   64.48    6.97
   6   2  -2   71.88    2.75
   6   2  -2   64.80    7.26
  -6   2   2   57.38    6.35
   6   2  -2   65.30    2.72
   5  -2  -2    0.31    0.11
   5  -2  -2    0.08    0.07
  -5  -2   2    0.08    0.91
   5   2  -2    0.19    0.10
  -5   2   2    0.60    0.85
   5   2  -2    0.17    0.12
   5   2  -2    0.67    1.35
  -5   2   2    0.26    0.12
  -4  -2   2   82.50    9.58
   4  -2  -2   84.97    3.05
   4  -2  -2   87.67    2.98
   4  -2  -2   89.24    7.25
  -4  -2   2   87.61    3.26
   4   2  -2   88.40    3.21
  -4   2   2   99.91    7.32
   4   2  -2   84.02    3.19
   4   2  -2   89.48    9.24
  -4   2   2   89.24    3.14
   3  -2  -2   45.23    1.66
  -3  -2   2   40.26    4.44
   3  -2  -2   55.47    4.63
  -3  -2   2   43.86    1.82
   3  -2  -2   46.04    1.68
   3   2  -2   47.94    1.81
  -3   2   2   51.65    4.31
   3   2  -2   45.71    4.89
  -3   2   2   46.82    1.74
  -3   2   2   48.02    1.72
   3   2  -2   44.76    1.80
   2  -2  -2    2.37    0.80
  -2  -2   2    2.56    0.24
   2  -2  -2    2.43    0.17
  -2  -2   2    2.33    0.23
  -2  -2   2    3.15    1.19
  -2   2   2    2.27    0.18
  -2   2   2    2.50    0.16
   2   2  -2    2.52    0.23
  -2   2   2    2.21    0.77
   2   2  -2    2.72    0.24
   2   2  -2    0.64    0.66
   1  -2  -2   49.27    1.64
  -1  -2   2   50.29    1.74
  -1  -2   2   50.16    1.76
  -1  -2   2   53.80    3.72
   1  -2  -2   51.85    2.30
   1   2  -2   48.31    3.59
  -1   2   2   54.34    2.16
  -1   2   2   47.81    1.64
   1   2  -2   49.69    1.75
   1   2  -2   47.47    1.74
   0  -2   2    0.18    0.20
   0  -2   2    0.15    0.05
   0  -2  -2    0.12    0.13
   0   2   2    0.13    0.19
   0   2   2    0.04    0.03
   0   2  -2    0.22    0.05
   0   2  -2   -0.11    0.11
  -1  -2  -2   46.84    3.57
   1  -2   2   43.12    1.45
   1  -2   2   41.77    1.50
   1   2   2   45.32    3.54
  -1   2  -2   40.04    1.48
  -1   2  -2   40.44    1.45
  -1   2  -2   50.22    3.32
   2  -2   2    2.56    0.18
   2  -2   2    2.61    0.22
  -2  -2  -2    2.51    1.13
  -2   2  -2    2.76    1.09
   2   2   2    3.01    0.27
  -2   2  -2    2.67    0.20
   2   2   2    2.83    1.29
  -3  -2  -2   38.11    4.61
  -3  -2  -2   36.33    1.56
   3  -2   2   38.93    1.50
   3  -2   2   38.62    1.40
  -3   2  -2   35.13    4.15
   3   2   2   42.92    4.78
   3   2   2   38.74    1.60
   4  -2   2   70.20    2.51
  -4  -2  -2   66.71    6.95
   4  -2   2   70.25    2.61
  -4  -2  -2   72.95    2.75
  -4   2  -2   79.38    7.32
   4   2   2   83.57    7.75
   4   2   2   67.01    2.71
  -5  -2  -2    0.45    1.28
   5  -2   2   -0.23    0.79
   5  -2   2    0.45    0.15
  -5   2  -2    0.99    1.33
   5   2   2   -1.05    1.05
   5   2   2    0.20    0.13
   6  -2   2   63.06    2.46
   6  -2   2   59.08    2.46
  -6  -2  -2   62.62    7.48
   6  -2   2   57.60    6.76
   6   2   2   60.30    2.57
   6   2   2   58.46    7.03
  -6   2  -2   53.47    6.53
   6   2   2   59.57    2.59
   7  -2   2    3.57    0.52
   7  -2   2    5.51    2.44
  -7  -2  -2    2.50    2.15
   7  -2   2    4.36    0.45
   7   2   2    3.84    0.60
   7   2   2    3.51    0.57
   7   2   2    2.43    2.08
  -7   2  -2    2.80    1.85
   8  -2   2    6.19    0.58
   8  -2   2    6.44    0.61
   8  -2   2    9.81    3.83
  -8  -2  -2    2.85    2.55
   8   2   2    7.42    0.71
   8   2   2    5.84    1.09
  -8   2  -2    3.36    2.40
   8   2   2    5.84    3.49
  -9  -2  -2    4.22    2.76
   9  -2   2    4.35    2.80
   9  -2   2    5.24    0.56
   9  -2   2    5.41    0.61
   9   2   2    2.57    3.34
   9   2   2    5.38    0.63
   9   2   2    5.52    0.66
  -9   2  -2    5.95    2.76
  10  -2   2    3.04    0.56
  10  -2   2    3.22    0.50
 -10  -2  -2    2.15    3.79
  10  -2   2    2.94    3.41
  10   2   2    2.78    0.56
  10   2   2    9.27    4.44
 -10   2  -2    1.29    3.41
  10   2   2    2.49    0.53
 -10  -3   2   22.13    6.92
  10  -3  -2   21.46    6.53
  10  -3  -2   24.15    1.38
  10  -3  -2   23.40    1.18
  10   3  -2   26.77    1.59
  10   3  -2   22.08    7.78
 -10   3   2   15.04    4.76
  10   3  -2   25.17    1.59
   9  -3  -2    3.13    0.61
   9  -3  -2    4.42    0.41
  -9  -3   2    3.75    3.56
   9  -3  -2    3.10    2.82
   9   3  -2    8.37    4.32
  -9   3   2    4.39    2.66
   9   3  -2    4.15    0.67
   9   3  -2    3.58    0.59
   8  -3  -2   11.62    0.69
   8  -3  -2   11.46    0.79
   8  -3  -2   12.04    0.68
   8  -3  -2    5.75    2.89
  -8  -3   2   13.92    4.06
  -8   3   2   11.57    3.67
   8   3  -2   10.75    0.91
   8   3  -2   10.91    4.20
  -7  -3   2   19.89    5.01
   7  -3  -2   23.87    1.07
   7  -3  -2   21.91    1.17
   7  -3  -2   23.81    5.23
  -7   3   2   18.84    4.53
   7   3  -2   25.63    1.40
   7   3  -2   19.73    5.42
   7   3  -2   24.72    1.37
   6  -3  -2   -0.53    0.84
  -6  -3   2   -0.76    0.90
   6  -3  -2    0.40    0.12
   6  -3  -2    0.24    0.10
   6  -3  -2    0.19    0.12
  -6   3   2   -0.85    0.87
   6   3  -2    0.23    0.11
   6   3  -2   -1.21    0.73
   6   3  -2    0.25    0.13
  -5  -3   2  119.06   10.11
   5  -3  -2  115.04    3.82
   5  -3  -2  114.75    3.85
   5  -3  -2  137.73   10.03
   5  -3  -2  110.61    3.98
   5   3  -2  107.19    4.18
   5   3  -2  133.98   10.99
  -5   3   2  140.05    9.73
  -5   3   2  111.81    4.12
   5   3  -2  109.62    4.20
  -4  -3   2    0.92    1.36
   4  -3  -2    1.11    0.12
  -4  -3   2    0.90    0.22
   4  -3  -2    0.79    0.85
   4  -3  -2    1.23    0.19
  -4   3   2    0.92    0.19
  -4   3   2    0.00    0.72
   4   3  -2   -0.63    0.68
   4   3  -2    0.72    0.18
   4   3  -2    0.96    0.22
   3  -3  -2   72.76    5.17
  -3  -3   2   67.92    6.11
  -3  -3   2   63.11    2.47
   3  -3  -2   64.44    2.25
  -3   3   2   65.17    2.28
   3   3  -2   63.51    6.07
   3   3  -2   64.85    2.46
  -3   3   2   66.30    2.32
   3   3  -2   65.12    2.44
  -3   3   2   71.61    4.99
  -2  -3   2  150.03    5.07
  -2  -3   2  147.91    5.06
   2  -3  -2  159.79    6.86
   2  -3  -2  150.68    4.84
  -2  -3   2  166.41    9.03
  -2   3   2  160.34    6.75
   2   3  -2  151.25    5.03
   2   3  -2  166.06    9.25
   2   3  -2  147.15    5.05
  -2   3   2  133.43    4.94
   1  -3  -2    9.45    0.39
  -1  -3   2   10.63    0.51
  -1  -3   2   10.35    0.49
  -1  -3   2   10.08    1.66
   1   3  -2   11.56    1.76
  -1   3   2    8.93    0.37
   1   3  -2    9.81    0.50
   1   3  -2    9.80    0.46
   0  -3   2   71.11    2.39
   0  -3   2   74.27    4.26
   0  -3   2   70.90    2.33
   0  -3  -2   76.05    3.66
   0   3  -2   79.22    4.38
   0   3   2   75.99    3.75
   0   3  -2   68.46    2.32
   0   3   2   64.75    2.38
   0   3  -2   68.93    2.40
   1  -3   2   10.16    1.36
  -1  -3  -2   11.81    1.78
   1  -3   2    9.76    0.49
   1  -3   2    9.80    0.38
  -1   3  -2   11.44    1.52
  -1   3  -2    9.54    0.43
  -1   3  -2    9.77    0.42
   1   3   2    9.06    0.47
   1   3   2   10.24    1.70
  -2  -3  -2  156.56    9.11
   2  -3   2  164.83    7.83
   2  -3   2  135.41    4.71
   2  -3   2  144.20    4.65
  -2   3  -2  135.32    4.68
   2   3   2  139.39    4.84
   2   3   2  142.89    8.78
  -2   3  -2  154.02    8.23
   3  -3   2   77.61    2.61
   3  -3   2   88.00    6.17
  -3  -3  -2   84.80    7.25
  -3  -3  -2   73.89    2.83
   3  -3   2   76.86    2.70
   3   3   2   74.81    2.86
   3   3   2   80.02    6.98
  -3   3  -2   75.63    6.33
   4  -3   2    1.80    0.18
   4  -3   2    1.45    0.94
   4  -3   2    1.78    0.21
  -4  -3  -2    1.68    1.40
  -4  -3  -2    1.38    0.27
   4   3   2    4.17    1.95
   4   3   2    2.59    0.41
  -4   3  -2    2.28    1.30
   5  -3   2  120.60    4.43
   5  -3   2  123.24    4.40
   5  -3   2  126.61    4.30
  -5  -3  -2  143.69   11.83
   5   3   2  121.47    4.64
   5   3   2  145.31   11.79
  -5   3  -2  147.31   11.23
   6  -3   2    0.30    0.14
   6  -3   2    0.25    0.10
   6  -3   2    0.00    0.08
  -6  -3  -2    1.59    1.23
   6   3   2   -1.66    0.98
   6   3   2    0.09    0.11
  -6   3  -2    0.75    1.27
   6   3   2    0.14    0.11
   7  -3   2   28.49    1.37
  -7  -3  -2   27.02    6.05
   7  -3   2   29.29    1.44
  -7   3  -2   19.32    4.55
   7   3   2   29.44    1.63
   7   3   2   30.79    5.39
   7   3   2   29.59    1.64
   8  -3   2   12.43    4.55
   8  -3   2   13.78    0.85
  -8  -3  -2   12.60    4.76
   8  -3   2   12.02    0.85
   8   3   2   12.05    0.99
   8   3   2   12.11    3.84
   8   3   2   12.07    1.01
  -8   3  -2    7.32    3.21
   9  -3   2    2.97    0.63
  -9  -3  -2   -0.94    3.15
   9  -3   2    2.93    0.45
   9  -3   2   -1.95    2.34
  -9   3  -2    0.46    2.73
   9   3   2    3.06    0.60
   9   3   2    1.98    3.49
   9   3   2    1.75    0.42
  10  -3   2   19.84    1.15
  10  -3   2    7.24    5.25
 -10  -3  -2    8.37    4.78
  10  -3   2   20.66    1.28
  10   3   2   20.10    1.43
  10   3   2    8.63    5.57
 -10   3  -2   25.05    6.72
  10   3   2   18.94    1.41
  10  -4  -2    0.54    0.23
 -10  -4   2   -3.90    2.24
  10   4  -2    0.16    0.26
 -10   4   2   -0.07    3.25
  10   4  -2   -0.69    4.73
  10   4  -2    0.93    0.29
   9  -4  -2   22.80    1.25
  -9  -4   2   21.91    6.20
   9  -4  -2   21.81    5.51
   9   4  -2   24.05    1.49
   9   4  -2   26.20    1.56
  -9   4   2   17.42    4.65
   9   4  -2   10.74    4.98
   8  -4  -2   13.83    0.66
   8  -4  -2   15.87    4.42
   8  -4  -2   12.75    0.83
  -8  -4   2   12.62    4.26
   8   4  -2   12.36    0.99
   8   4  -2   13.93    1.04
  -8   4   2   14.64    4.04
   8   4  -2   14.14    4.70
   7  -4  -2    0.26    0.12
   7  -4  -2    0.19    0.09
   7  -4  -2    1.84    1.45
  -7  -4   2   -0.45    1.21
   7  -4  -2    0.49    0.11
   7   4  -2    0.26    0.17
   7   4  -2    0.31    0.20
  -7   4   2   -1.07    0.90
   7   4  -2   -0.11    1.58
  -6  -4   2    3.54    2.20
   6  -4  -2    5.08    2.00
   6  -4  -2    3.17    0.33
   6   4  -2    2.94    1.88
   6   4  -2    3.72    0.46
  -6   4   2    2.29    1.49
   6   4  -2    3.76    0.55
   5  -4  -2    0.16    0.09
   5  -4  -2   -0.12    0.73
  -5  -4   2   -0.69    0.72
  -5   4   2    0.56    0.16
   5   4  -2    0.84    1.06
   5   4  -2    0.19    0.11
   5   4  -2    0.32    0.14
  -5   4   2    0.56    0.75
   4  -4  -2    6.21    2.51
  -4  -4   2    5.27    2.25
   4  -4  -2    7.21    0.41
   4   4  -2    7.26    0.56
   4   4  -2    8.10    2.69
  -4   4   2   10.38    3.30
  -4   4   2    8.03    0.49
   4   4  -2    6.61    0.55
  -3  -4   2   34.98    1.74
  -3  -4   2   36.87    4.50
   3  -4  -2   41.44    3.41
   3  -4  -2   36.29    1.31
  -3   4   2   36.71    1.36
   3   4  -2   35.81    1.54
   3   4  -2   36.54    1.58
   3   4  -2   38.67    4.84
  -3   4   2   42.20    3.52
   2  -4  -2   13.48    1.18
  -2  -4   2   11.20    0.65
  -2  -4   2   11.80    0.66
  -2  -4   2    9.07    2.16
   2   4  -2   12.41    0.67
   2   4  -2   13.50    2.92
  -2   4   2   12.11    0.49
  -2   4   2   13.75    1.33
   2   4  -2   11.28    0.62
  -1  -4   2  114.11    6.60
  -1  -4   2  107.83    3.53
  -1  -4   2  104.87    3.55
   1   4  -2  102.47    3.48
   1   4  -2  105.47    6.55
   1   4  -2   99.94    3.55
   0  -4   2    0.09    0.05
   0  -4  -2    0.10    0.24
   0  -4   2    0.17    0.38
   0  -4   2    0.02    0.04
   0   4  -2   -0.08    0.23
   0   4   2    0.11    0.26
   0   4  -2    0.10    0.05
   0   4  -2    0.06    0.03
   1  -4   2  106.62    3.56
  -1  -4  -2  112.67    6.59
  -1   4  -2  119.27    6.13
   1   4   2  113.40    6.69
   1   4   2   99.62    3.60
  -1   4  -2  110.70    5.75
  -1   4  -2  103.97    3.54
   2  -4   2   15.81    1.99
  -2  -4  -2   14.31    2.50
   2  -4   2   13.40    0.70
   2  -4   2   13.89    0.57
  -2   4  -2   15.60    2.29
   2   4   2   14.22    0.75
  -2   4  -2   14.82    0.62
   2   4   2   17.85    2.77
   3  -4   2   35.08    1.34
   3  -4   2   35.73    1.28
  -3  -4  -2   34.58    4.65
  -3  -4  -2   35.15    1.51
   3  -4   2   41.25    3.87
   3   4   2   35.64    1.55
  -3   4  -2   37.52    4.25
   3   4   2   36.72    4.75
  -3   4  -2   34.94    1.35
   4  -4   2   10.43    2.68
  -4  -4  -2    8.19    0.61
  -4  -4  -2    4.75    2.22
   4  -4   2    8.11    0.42
   4  -4   2    8.07    0.48
   4   4   2    7.29    0.60
  -4   4  -2    5.30    2.09
   4   4   2    7.32    2.64
   5  -4   2    0.46    0.14
  -5  -4  -2    1.42    1.29
   5  -4   2    0.75    0.14
   5  -4   2    0.35    0.12
   5  -4   2    0.35    0.64
   5   4   2   -1.27    0.76
   5   4   2    0.46    0.18
  -5   4  -2    0.45    0.88
   5   4   2    0.31    0.16
  -6  -4  -2    0.06    1.39
   6  -4   2    1.94    0.35
   6  -4   2    1.46    1.38
   6  -4   2    2.05    0.33
   6  -4   2    2.12    0.26
   6   4   2    2.13    0.46
   6   4   2    3.04    0.52
  -6   4  -2    1.15    1.16
   6   4   2    2.64    2.11
   7  -4   2    0.48    0.16
  -7  -4  -2    1.69    2.07
   7  -4   2    2.55    1.93
   7  -4   2    0.81    0.20
   7   4   2   -0.04    1.63
   7   4   2    0.79    0.24
  -7   4  -2    1.38    1.45
   7   4   2    0.18    0.18
   8  -4   2    7.32    2.91
   8  -4   2   12.40    0.85
   8  -4   2   12.76    0.80
  -8  -4  -2   13.20    4.15
  -8   4  -2    7.53    3.29
   8   4   2   14.87    1.10
   8   4   2   14.28    1.09
   8   4   2    6.79    3.60
  -9  -4  -2   24.60    6.77
   9  -4   2   28.35    1.53
   9  -4   2   31.13    1.45
   9  -4   2   26.23    6.20
  -9   4  -2   32.93    8.27
   9   4   2   31.18    7.87
   9   4   2   29.92    1.82
   9   4   2   31.50    1.86
  10  -4   2    0.29    0.20
  10  -4   2    1.94    4.87
 -10  -4  -2    1.04    3.73
  10  -4   2    0.67    0.20
  10   4   2    5.45    4.77
 -10   4  -2   -1.07    3.12
  10   4   2    0.31    0.23
  10   4   2    0.07    0.21
 -10  -5   2   31.47    7.73
  10  -5  -2   34.91    1.68
  10   5  -2   28.01    2.23
  10   5  -2   37.94    2.08
 -10   5   2   34.94    9.93
  10   5  -2   30.87    8.02
  -9  -5   2    1.32    2.85
   9  -5  -2    2.30    0.37
   9  -5  -2    3.70    2.70
   9   5  -2    2.04    0.43
  -9   5   2    1.17    1.97
   9   5  -2    1.84    0.44
   9   5  -2    0.54    3.56
  -8  -5   2   14.62    5.11
   8  -5  -2   19.80    1.05
   8  -5  -2   19.93    5.09
  -8   5   2   15.45    4.00
   8   5  -2   23.00    6.49
   8   5  -2   18.72    1.28
   8   5  -2   20.88    1.36
  -7  -5   2   22.04    5.79
   7  -5  -2   23.91    1.16
   7  -5  -2   28.47    5.56
   7   5  -2   19.98    4.57
   7   5  -2   23.29    1.42
   7   5  -2   26.26    1.48
  -7   5   2   29.64    4.59
  -6  -5   2    4.61    2.48
   6  -5  -2    6.50    2.29
   6  -5  -2    6.47    0.45
  -6   5   2    6.57    2.36
   6   5  -2    6.86    0.66
   6   5  -2    7.33    2.73
   6   5  -2    7.00    0.65
  -5  -5   2    7.96    2.57
   5  -5  -2   14.68    2.43
   5  -5  -2   10.03    0.54
  -5   5   2    9.93    2.51
   5   5  -2   12.75    3.61
   5   5  -2    8.85    0.73
  -5   5   2   10.09    0.65
   5   5  -2   10.59    0.77
  -4  -5   2   31.56    4.80
   4  -5  -2   26.56    1.06
   4  -5  -2   32.44    3.41
   4   5  -2   26.45    1.43
  -4   5   2   34.25    3.66
  -4   5   2   26.41    1.16
   4   5  -2   27.06    1.37
   4   5  -2   32.06    4.90
   3  -5  -2   45.42    1.57
  -3  -5   2   47.05    5.33
   3  -5  -2   49.48    3.31
  -3  -5   2   47.39    1.93
  -3   5   2   51.94    3.73
   3   5  -2   46.00    1.87
  -3   5   2   44.63    1.64
   3   5  -2   46.59    1.93
  -3   5   2   44.62    1.58
   3   5  -2   49.88    5.71
  -2  -5   2  138.90    4.84
  -2  -5   2  147.95    9.23
   2   5  -2  149.19    9.46
  -2   5   2  149.66    5.42
   2   5  -2  133.86    4.76
  -2   5   2  149.05    5.90
   2   5  -2  133.50    4.82
  -1  -5   2   17.15    0.81
  -1  -5   2   17.72    0.81
  -1  -5   2   20.64    2.69
  -1   5   2   19.13    1.26
   1   5  -2   18.95    2.66
   1   5  -2   16.77    0.76
  -1   5   2   18.34    1.30
   1   5  -2   18.09    0.84
   0  -5   2  223.58    7.22
   0  -5   2  216.12   10.22
   0  -5  -2  250.08    9.52
   0  -5   2  220.30    7.17
   0   5  -2  219.99    7.26
   0   5  -2  215.19    7.13
   0   5   2  234.02    9.75
   0   5  -2  244.11   10.68
   0   5   2  209.17    7.14
  -1  -5  -2   13.70    2.12
   1  -5   2   13.11    0.53
  -1   5  -2   15.51    2.00
   1   5   2   11.93    0.62
   1   5   2   12.35    2.49
  -1   5  -2   13.66    1.80
  -1   5  -2   12.47    0.58
   2  -5   2  144.55    7.20
  -2  -5  -2  134.12    8.86
   2   5   2  125.61    4.52
  -2   5  -2  137.23    7.86
  -2   5  -2  126.16    4.34
   2   5   2  135.69    8.96
   3  -5   2   40.38    1.53
  -3  -5  -2   47.44    5.53
   3  -5   2   47.37    4.09
   3   5   2   41.18    1.80
  -3   5  -2   43.52    1.59
  -3   5  -2   41.92    4.56
   3   5   2   47.16    5.50
  -4  -5  -2   14.03    4.03
   4  -5   2   21.85    0.91
   4  -5   2   26.86    3.49
   4  -5   2   22.71    0.87
   4  -5   2   22.44    0.95
  -4  -5  -2   23.17    1.19
   4   5   2   22.70    1.29
  -4   5  -2   24.53    3.90
   4   5   2   26.73    4.37
   5  -5   2    6.36    0.36
  -5  -5  -2    6.29    2.34
   5  -5   2    5.98    0.43
   5  -5   2    5.45    2.14
   5  -5   2    6.40    0.40
   5   5   2    7.42    0.66
  -5   5  -2    3.10    1.65
   5   5   2    3.05    1.81
   5   5   2    6.06    0.60
  -6  -5  -2    6.77    2.80
   6  -5   2    4.30    0.35
   6  -5   2    4.61    0.32
   6  -5   2    4.88    0.40
   6   5   2    2.41    1.87
  -6   5  -2    8.15    2.70
   6   5   2    4.79    0.57
   6   5   2    4.49    0.55
   7  -5   2   20.47    1.09
   7  -5   2   21.01    1.01
   7  -5   2   26.72    5.53
  -7  -5  -2   20.24    6.13
   7  -5   2   22.03    0.96
   7   5   2   18.51    6.37
  -7   5  -2   19.82    4.98
   7   5   2   22.68    1.42
   7   5   2   21.92    1.40
   8  -5   2   18.27    0.91
  -8  -5  -2   22.80    6.04
   8  -5   2   13.43    3.57
   8  -5   2   21.71    1.13
   8   5   2   12.99    5.20
   8   5   2   18.42    1.33
  -8   5  -2   16.88    4.42
   8   5   2   20.13    1.36
   9  -5   2    8.20    3.48
   9  -5   2    4.75    0.50
   9  -5   2    4.74    0.44
  -9  -5  -2   10.54    4.28
   9   5   2    3.59    0.64
  -9   5  -2    2.62    2.88
   9   5   2    5.54    4.34
   9   5   2    3.55    0.69
 -10  -5  -2   32.42    8.49
  10  -5   2   31.85    1.63
  10   5   2   29.92    1.92
  10   5   2   34.98    9.28
  10   5   2   30.01    1.94
  -9  -6   2    9.01    4.07
   9  -6  -2   13.36    0.84
   9  -6  -2    9.92    3.99
   9   6  -2   12.87    1.08
   9   6  -2   15.73    6.24
  -9   6   2   15.99    4.29
   9   6  -2   13.13    1.12
   8  -6  -2    3.09    0.35
   8  -6  -2    2.78    2.12
  -8  -6   2    0.63    2.49
  -8   6   2    0.95    1.87
   8   6  -2    5.38    3.07
   8   6  -2    3.36    0.58
   8   6  -2    2.69    0.55
  -7  -6   2   28.95    6.27
   7  -6  -2   16.96    3.67
   7  -6  -2   20.64    1.20
  -7   6   2   26.40    4.19
   7   6  -2   23.39    6.17
   7   6  -2   22.57    1.39
   7   6  -2   21.19    1.35
   6  -6  -2    0.12    0.09
   6  -6  -2    0.61    1.05
  -6  -6   2   -0.48    1.35
   6   6  -2    0.51    0.22
   6   6  -2    0.05    0.15
   6   6  -2    0.03    1.38
  -6   6   2   -1.50    0.79
  -5  -6   2    1.72    1.56
   5  -6  -2    1.13    0.18
   5  -6  -2    1.17    0.63
   5   6  -2    1.13    0.27
  -5   6   2    2.17    1.23
   5   6  -2    0.58    1.37
   5   6  -2    1.10    0.29
  -5   6   2    1.23    0.24
   4  -6  -2   16.13    0.66
   4  -6  -2   16.48    1.90
  -4  -6   2   13.45    3.33
   4   6  -2   15.51    3.69
  -4   6   2   18.96    2.35
   4   6  -2   16.21    0.96
  -4   6   2   16.61    0.79
   4   6  -2   16.10    0.99
  -3  -6   2   74.46    2.90
   3  -6  -2   77.77    3.98
  -3  -6   2   72.88    7.04
   3   6  -2   71.92    2.89
   3   6  -2   73.44    2.84
  -3   6   2   90.50    4.89
   3   6  -2   80.73    7.67
  -2  -6   2    3.50    1.48
  -2  -6   2    3.31    0.33
   2   6  -2    2.43    1.41
   2   6  -2    2.94    0.29
   2   6  -2    3.23    0.33
  -2   6   2    3.88    0.55
  -2   6   2    4.11    0.81
  -1  -6   2  105.68    3.73
  -1  -6   2  117.76    7.51
   1   6  -2  104.21    3.66
   1   6  -2  109.55    7.49
  -1   6   2  120.29    4.87
  -1   6   2  112.12    5.00
   1   6  -2  102.95    3.76
   0  -6  -2   -0.18    0.24
   0  -6   2    0.16    0.30
   0   6   2    0.59    0.44
   0   6  -2    0.12    0.05
   0   6   2    0.05    0.04
   0   6  -2    0.13    0.06
   0   6  -2   -0.03    0.43
  -1  -6  -2  108.02    7.01
  -1   6  -2  122.44    6.68
  -1   6  -2  112.59    3.78
  -1   6  -2  122.01    6.83
   1   6   2  111.89    7.39
   1   6   2  106.04    3.83
  -2  -6  -2    1.17    1.05
  -2   6  -2    3.22    1.26
  -2   6  -2    2.67    0.96
  -2   6  -2    2.22    0.20
   2   6   2    1.81    0.29
   2   6   2    0.59    0.93
   3  -6   2   72.22    5.77
  -3  -6  -2   81.74    7.57
   3   6   2   70.91    7.15
   3   6   2   71.10    2.84
  -3   6  -2   74.08    2.59
  -3   6  -2   82.59    7.44
  -4  -6  -2   10.17    2.99
   4  -6   2   10.53    0.55
   4  -6   2   10.11    0.50
  -4   6  -2   10.90    0.60
   4   6   2   11.28    0.80
   4   6   2    9.21    2.61
   4   6   2   10.39    0.78
   5  -6   2    1.89    0.21
  -5  -6  -2    0.65    1.27
   5  -6   2    1.62    1.29
   5   6   2    1.90    0.37
   5   6   2    1.75    1.38
   5   6   2    1.87    0.37
   6  -6   2   -0.06    1.32
  -6  -6  -2    1.22    1.47
   6   6   2    5.55    2.58
  -6   6  -2    1.09    1.40
   7  -6   2   16.67    4.41
  -7  -6  -2   18.81    5.11
   7   6   2   16.61    5.15
   7   6   2   15.58    1.17
   7   6   2   16.33    1.18
  -7   6  -2   10.65    4.04
   8  -6   2    2.22    0.35
   8  -6   2    2.63    1.98
  -8  -6  -2    0.02    1.83
   8   6   2    1.78    0.41
  -8   6  -2    2.50    2.18
   8   6   2   -0.58    2.53
   8   6   2    2.41    0.54
   9  -6   2   15.20    4.69
  -9  -6  -2    6.23    4.69
   9  -6   2   12.72    0.86
   9   6   2   14.28    1.20
   9   6   2   11.70    1.10
  -9   6  -2   17.44    4.77
   9   6   2   10.05    4.78
   9  -7  -2   -2.83    2.23
   9  -7  -2    1.63    0.32
  -9  -7   2    1.35    2.61
  -9   7   2    4.94    2.54
   9   7  -2    1.26    0.40
   9   7  -2    5.49    3.81
   9   7  -2    1.29    0.41
   8  -7  -2   20.04    0.98
  -8  -7   2   14.30    5.13
   8  -7  -2   16.97    4.14
   8   7  -2   17.24    5.65
   8   7  -2   19.32    1.35
  -8   7   2   16.36    3.71
   8   7  -2   17.52    1.28
   7  -7  -2   -0.64    1.04
   7  -7  -2    0.43    0.13
  -7  -7   2    0.43    1.39
   7   7  -2    0.41    0.22
  -7   7   2   -0.48    1.38
   7   7  -2    2.80    2.49
   7   7  -2    0.08    0.16
  -6  -7   2    1.89    1.47
   6  -7  -2    1.09    1.02
   6  -7  -2    1.67    0.23
   6   7  -2    2.62    1.97
   6   7  -2    1.76    0.37
   6   7  -2    2.25    0.43
  -6   7   2    3.18    1.21
   5  -7  -2    6.75    0.36
   5  -7  -2    6.92    1.59
  -5  -7   2    5.06    1.83
  -5   7   2    6.12    0.49
   5   7  -2    7.12    0.63
   5   7  -2    5.65    0.59
  -5   7   2    5.41    1.67
  -4  -7   2   13.54    3.46
   4  -7  -2   16.14    1.65
   4   7  -2   14.98    0.98
   4   7  -2   16.61    0.96
   4   7  -2   13.49    3.51
  -4   7   2   15.91    2.08
  -3  -7   2    8.67    0.62
  -3  -7   2    6.22    2.09
  -3   7   2    8.23    1.14
   3   7  -2    7.52    0.60
   3   7  -2    6.78    2.27
   3   7  -2    7.51    0.56
  -3   7   2    7.91    0.89
  -2  -7   2  120.67    8.68
  -2  -7   2  101.00    3.80
  -2   7   2  116.73    4.56
   2   7  -2  103.11    3.75
   2   7  -2  110.64    8.63
  -2   7   2  117.48    4.89
   2   7  -2   99.67    3.85
  -1  -7   2    0.58    0.70
  -1  -7   2    0.60    0.15
  -1   7   2    0.98    0.46
  -1   7   2    0.38    0.40
   1   7  -2    0.79    0.15
   1   7  -2    0.89    0.19
   1   7  -2    1.45    0.75
   0  -7   2   98.46    3.39
   0  -7   2  113.50    7.04
   0  -7  -2  112.35    6.00
   0   7  -2   99.77    3.52
   0   7   2   97.35    3.46
   0   7  -2   96.99    3.34
   0   7   2   97.17    3.43
   0   7   2  112.91    6.52
   0   7  -2  108.51    7.09
  -1  -7  -2    1.20    0.60
   1   7   2    0.19    0.62
   1   7   2    1.30    0.23
  -1   7  -2    1.37    0.20
  -1   7  -2    2.12    0.90
  -1   7  -2    0.50    0.55
  -2  -7  -2  126.66    9.01
   2   7   2  112.65    4.25
  -2   7  -2  131.19    7.96
  -2   7  -2  112.91    4.06
  -2   7  -2  137.19    7.30
   2   7   2  125.66    9.11
  -3  -7  -2    4.64    1.75
   3   7   2    6.72    2.23
   3   7   2    6.10    0.53
   3   7   2    5.27    0.49
  -3   7  -2    4.92    0.36
  -3   7  -2    5.79    1.79
   4  -7   2   11.66    1.86
  -4  -7  -2   13.24    3.28
   4   7   2   10.58    0.81
  -4   7  -2   13.34    0.67
  -4   7  -2   11.70    2.86
   4   7   2   12.72    3.71
   4   7   2   11.56    0.84
  -5  -7  -2    7.04    2.45
   5  -7   2    4.35    1.39
   5   7   2    7.26    2.89
   5   7   2    6.71    0.63
  -5   7  -2    7.11    2.41
   5   7   2    6.40    0.65
   6  -7   2    5.52    1.78
  -6  -7  -2    4.87    2.43
   6  -7   2    3.85    0.32
   6  -7   2    3.38    0.37
   6   7   2    3.94    0.65
  -6   7  -2    2.20    1.75
   6   7   2    2.68    2.41
   6   7   2    2.94    0.52
   7  -7   2    0.41    0.15
   7  -7   2    2.03    1.45
  -7  -7  -2   -3.01    1.65
   7   7   2    0.98    0.31
  -7   7  -2   -2.63    1.41
   7   7   2    0.39    0.20
   7   7   2    3.72    2.59
  -8  -7  -2   20.83    5.59
   8  -7   2   25.87    1.21
   8  -7   2   25.86    5.34
  -8   7  -2   24.11    5.80
   8   7   2   23.44    1.59
   8   7   2   25.17    1.61
   8   7   2   17.89    5.43
  -9  -7  -2   -1.22    3.63
   9  -7   2    1.52    0.32
   9  -7   2    1.39    2.59
   9   7   2    2.04    0.48
  -9   7  -2    0.61    2.52
   9   7   2    1.09    0.36
   9  -8  -2   23.67    1.11
   9  -8  -2   21.34    4.48
  -9  -8   2    9.44    5.49
   9   8  -2   20.93    1.52
  -9   8   2   21.30    4.62
   9   8  -2   19.45    7.18
   9   8  -2   21.91    1.53
   8  -8  -2    7.42    0.59
  -8  -8   2    9.96    3.64
   8  -8  -2   10.26    4.11
   8   8  -2    7.97    0.78
   8   8  -2    4.07    3.27
  -8   8   2    9.95    3.47
   8   8  -2    9.28    0.92
   7  -8  -2    0.34    1.08
  -7  -8   2   -0.76    1.74
   7  -8  -2    0.95    0.18
  -7   8   2    0.08    1.24
   7   8  -2    0.34    2.27
   7   8  -2    1.35    0.36
   7   8  -2    0.99    0.33
  -6  -8   2   11.87    4.08
   6  -8  -2   11.33    2.31
  -6   8   2    9.57    2.36
   6   8  -2   12.47    1.06
   6   8  -2    8.29    2.90
   6   8  -2   10.98    0.88
   5  -8  -2    0.65    0.69
  -5  -8   2    0.14    1.34
   5   8  -2    1.44    0.36
  -5   8   2    1.59    1.00
   5   8  -2    1.66    0.37
   5   8  -2    0.20    1.72
  -4  -8   2   25.33    4.09
   4   8  -2   23.75    1.30
   4   8  -2   24.05    1.23
   4   8  -2   22.01    4.73
  -4   8   2   21.38    0.92
  -4   8   2   22.90    1.89
  -4   8   2   22.68    2.27
  -3  -8   2   21.15    1.12
  -3  -8   2   23.90    3.59
  -3   8   2   19.62    1.61
   3   8  -2   21.34    1.31
   3   8  -2   21.12    1.16
  -3   8   2   20.02    1.42
   3   8  -2   20.45    4.24
  -2  -8   2   11.18    2.81
  -2  -8   2   10.90    0.66
   2   8  -2    9.23    2.62
  -2   8   2   10.46    1.09
   2   8  -2   11.51    0.73
  -2   8   2    8.76    0.94
   2   8  -2   10.52    0.62
  -1  -8   2   78.73    2.71
  -1  -8   2   70.91    6.53
  -1   8   2   74.41    3.98
  -1   8   2   71.90    4.21
   1   8  -2   62.18    6.44
   1   8  -2   79.10    2.66
   1   8  -2   81.11    2.84
   0  -8  -2    0.54    0.62
   0  -8   2   -0.35    0.50
   0   8   2    0.02    0.05
   0   8   2    0.06    0.08
   0   8   2    0.09    0.08
   0   8  -2   -0.04    0.05
   0   8  -2    0.13    0.05
   0   8  -2    0.76    0.78
   0   8   2    0.13    0.62
  -1  -8  -2   69.27    7.23
  -1   8  -2   83.58    2.81
   1   8   2   80.31    2.87
  -1   8  -2   76.22    5.31
   1   8   2   81.90    2.84
  -1   8  -2   69.80    7.40
   1   8   2   70.60    8.57
  -2  -8  -2   12.08    2.84
  -2   8  -2   13.97    0.68
   2   8   2   12.67    0.79
  -2   8  -2   12.78    1.90
   2   8   2   14.72    0.82
   2   8   2   11.57    2.76
  -2   8  -2   13.14    2.12
  -3  -8  -2   14.19    3.39
  -3   8  -2   14.48    2.54
   3   8   2   15.15    3.56
   3   8   2   17.36    1.04
  -3   8  -2   18.47    0.84
  -3   8  -2   20.36    2.38
   3   8   2   17.20    1.49
  -4  -8  -2   26.13    4.40
  -4   8  -2   23.09    3.60
  -4   8  -2   29.71    1.24
   4   8   2   26.79    1.47
   4   8   2   30.69    5.00
   4   8   2   29.53    1.50
  -5  -8  -2    0.66    1.55
   5  -8   2    0.69    0.79
   5   8   2   -1.08    1.31
   5   8   2    0.03    0.12
  -5   8  -2   -0.24    0.88
   5   8   2   -0.18    0.10
   6  -8   2   17.15    3.39
  -6  -8  -2   13.12    4.67
   6   8   2    8.61    3.32
   6   8   2   15.01    1.19
   6   8   2   12.58    1.02
  -6   8  -2   16.44    4.13
   7  -8   2    0.78    1.38
   7  -8   2    0.39    0.14
  -7  -8  -2    0.60    2.36
   7  -8   2    1.01    0.34
  -7   8  -2    0.66    1.51
   7   8   2    0.63    0.26
   7   8   2   -0.12    2.23
   7   8   2    0.53    0.22
   8  -8   2    7.63    0.68
   8  -8   2    3.73    2.33
  -8   8  -2    4.36    3.16
   8   8   2    7.77    0.85
   8   8   2    7.32    0.82
   9  -8   2   23.99    1.14
  -9  -8  -2   24.91    7.11
   9  -8   2   13.99    4.30
   9   8   2   20.52    1.54
   9   8   2   21.64    1.60
   9   8   2   19.93    7.07
  -9   8  -2   23.87    6.08
   8  -9  -2   17.51    3.57
  -8  -9   2    8.65    4.08
   8   9  -2   15.41    1.24
  -8   9   2   10.50    2.98
   8   9  -2    8.63    4.68
   8   9  -2   14.24    1.14
  -7  -9   2    2.95    2.70
   7  -9  -2    8.33    2.17
   7   9  -2    6.25    0.73
  -7   9   2    6.43    2.10
   7   9  -2    7.35    0.74
  -6  -9   2   -0.25    1.51
   6  -9  -2   -0.29    0.69
  -6   9   2   -0.09    0.78
   6   9  -2    0.03    0.16
   6   9  -2    0.00    0.12
   6   9  -2   -1.30    2.08
  -5  -9   2   34.43    5.52
   5   9  -2   27.80    6.04
   5   9  -2   39.30    2.00
  -5   9   2   39.80    2.90
  -5   9   2   42.03    3.47
   5   9  -2   43.35    1.95
  -4  -9   2    2.72    1.54
  -4   9   2    4.32    0.31
   4   9  -2    4.80    0.52
   4   9  -2    4.89    2.17
  -4   9   2    4.63    0.84
  -4   9   2    4.81    0.98
   4   9  -2    4.53    0.46
  -3  -9   2    6.40    0.56
  -3  -9   2    5.71    2.32
   3   9  -2    6.86    0.60
   3   9  -2    4.43    1.90
   3   9  -2    6.40    0.52
  -2  -9   2   34.17    1.46
  -2  -9   2   34.40    4.29
   2   9  -2   33.22    1.42
   2   9  -2   32.35    4.42
   2   9  -2   34.65    1.58
  -2   9   2   31.69    2.08
  -1  -9   2    0.89    0.17
  -1  -9   2    0.78    0.71
  -1   9   2    1.05    0.51
   1   9  -2    0.63    0.19
   1   9  -2    0.38    0.71
   1   9  -2    0.40    0.12
  -1   9   2    1.37    0.58
   0  -9   2  117.26    7.54
   0  -9  -2  124.34    6.72
   0   9  -2  121.65    7.84
   0   9  -2  128.25    4.30
   0   9   2  124.33    4.21
   0   9   2  118.76    7.17
   0   9   2  126.45    4.09
   0   9  -2  121.78    4.03
  -1  -9  -2    0.98    0.70
   1   9   2    1.08    0.22
   1   9   2    0.81    0.20
   1   9   2    0.72    0.75
  -1   9  -2    0.90    0.19
  -1   9  -2    0.75    0.68
  -1   9  -2    0.78    0.80
  -2  -9  -2   37.76    4.36
  -2   9  -2   41.38    1.57
   2   9   2   39.00    1.68
  -2   9  -2   37.71    3.53
   2   9   2   40.15    1.74
   2   9   2   30.89    4.26
  -2   9  -2   39.92    4.03
   3   9   2    6.40    0.57
   3   9   2    4.44    2.11
  -3   9  -2    4.61    1.43
  -3   9  -2    5.38    0.40
  -3   9  -2    3.20    1.35
   3   9   2    5.60    0.52
  -4  -9  -2    2.70    1.76
   4   9   2    4.14    0.49
   4   9   2    2.93    2.25
  -4   9  -2    4.38    0.37
   4   9   2    3.52    0.51
  -4   9  -2    3.79    1.24
  -4   9  -2    5.30    2.03
  -5  -9  -2   37.62    5.99
   5   9   2   32.06    1.67
  -5   9  -2   24.15    3.73
   5   9   2   31.54    1.70
   5   9   2   22.96    5.20
   6  -9   2    0.38    1.10
  -6  -9  -2   -0.82    1.19
   6   9   2   -0.09    0.14
  -6   9  -2    0.63    1.45
   6   9   2   -0.18    0.13
   6   9   2   -1.49    2.61
  -7  -9  -2    3.45    3.25
   7  -9   2    9.06    2.34
  -7   9  -2    7.92    2.88
   7   9   2    6.28    0.69
   7   9   2    0.50    3.10
   7   9   2    4.86    0.77
  -8  -9  -2    9.81    4.93
   8  -9   2    7.22    2.76
   8   9   2   10.89    5.01
   8   9   2   10.52    1.02
  -8   9  -2    8.37    3.43
   8   9   2    9.39    0.94
   8 -10  -2    5.18    2.06
   8  10  -2    5.99    0.88
  -8  10   2    3.82    2.05
   8  10  -2    8.88    0.91
  -7 -10   2    1.68    3.07
   7  10  -2    6.49    3.78
   7  10  -2    3.21    0.62
   7  10  -2    4.24    0.68
  -7  10   2    4.64    1.57
   6  10  -2   46.31    2.22
  -6  10   2   45.85    3.24
   6  10  -2   46.10    2.33
  -6  10   2   45.77    3.64
  -5 -10   2    4.66    2.66
  -5  10   2    5.71    0.99
   5  10  -2    5.42    3.44
  -5  10   2    4.39    0.90
   5  10  -2    4.05    0.63
   5  10  -2    5.13    0.55
  -4 -10   2   60.56    7.17
  -4  10   2   69.76    2.47
   4  10  -2   72.42    8.12
   4  10  -2   70.72    2.98
   4  10  -2   73.09    2.84
  -3 -10   2    1.25    1.30
  -3 -10   2    2.54    0.38
   3  10  -2    2.56    0.44
   3  10  -2   -0.24    1.28
   3  10  -2    2.99    0.34
  -2 -10   2   18.23    0.91
  -2 -10   2   16.36    3.64
   2  10  -2   17.09    1.02
   2  10  -2   16.76    0.88
  -1 -10   2    6.16    1.86
   1  10  -2    9.09    0.51
  -1  10   2    9.08    1.77
  -1  10   2    8.72    1.44
   1  10  -2    9.14    0.65
  -1  10   2    8.54    0.50
   1  10  -2    7.15    2.21
   0 -10  -2    0.16    0.46
   0 -10   2    0.62    0.64
   0  10   2    0.29    0.11
   0  10  -2   -0.07    0.69
   0  10   2    1.79    0.96
   0  10  -2    0.41    0.14
  -1 -10  -2   11.70    2.47
   1  10   2   11.24    0.72
   1  10   2   13.84    3.15
  -1  10  -2   12.50    2.61
  -1  10  -2   11.86    0.69
  -1  10  -2   13.06    2.18
   1  10   2   11.13    0.65
  -2 -10  -2    8.05    2.30
  -2  10  -2   14.19    2.83
  -2  10  -2   16.44    2.31
   2  10   2   14.98    0.93
   2  10   2   14.29    0.83
  -2  10  -2   14.98    0.78
   2  10   2   12.70    3.18
  -3 -10  -2    1.17    1.11
  -3  10  -2    2.15    0.26
  -3  10  -2    3.61    1.22
  -3  10  -2    2.63    1.40
   3  10   2    1.90    1.50
   3  10   2    2.98    0.46
   3  10   2    3.02    0.36
  -4 -10  -2   62.26    7.27
   4  10   2   64.12    7.51
   4  10   2   66.00    2.82
  -4  10  -2   55.96    5.72
  -4  10  -2   65.71    4.96
   4  10   2   66.94    2.75
  -4  10  -2   66.46    2.46
  -5 -10  -2    1.05    1.51
  -5  10  -2    1.74    1.03
   5  10   2    2.52    0.46
  -5  10  -2    2.46    1.55
   5  10   2    3.79    0.60
  -5  10  -2    2.88    0.33
  -6 -10  -2   44.81    7.19
   6  10   2   43.78    2.22
   6  10   2   42.84    7.08
  -6  10  -2   44.22    5.51
   6  10   2   44.62    2.31
  -7 -10  -2    1.20    3.05
   7  10   2   -1.68    2.57
  -7  10  -2    4.98    3.07
   8 -10   2    4.18    2.49
   8  10   2   11.14    1.08
   8  10   2    9.52    1.02
  -8  10  -2   11.68    3.65
   7  11  -2   18.50    1.36
  -7  11   2   17.28    2.14
   7  11  -2   16.60    1.22
  -6 -11   2    4.77    2.70
   6  11  -2    0.77    0.30
   6  11  -2    5.01    3.27
   6  11  -2    2.01    0.44
  -5 -11   2   15.77    4.94
   5  11  -2   10.18    3.44
   5  11  -2   12.71    0.91
   5  11  -2   11.64    0.97
   4  11  -2    9.84    0.76
   4  11  -2   10.38    0.87
  -4  11   2   11.77    0.60
  -3 -11   2   26.80    5.46
  -3 -11   2   24.73    1.24
   3  11  -2   25.19    1.24
  -3  11   2   24.84    1.03
   3  11  -2   24.17    1.38
  -2 -11   2    7.86    2.53
   2  11  -2    8.53    0.69
   2  11  -2   10.04    3.06
  -2  11   2    9.37    0.52
   2  11  -2    9.17    0.59
  -1 -11   2    2.36    1.31
   1  11  -2    1.18    0.20
  -1  11   2    1.44    0.77
   1  11  -2    1.51    0.31
  -1  11   2    1.44    0.23
  -1  11   2    1.88    1.17
   0 -11  -2    9.20    2.02
   0  11   2    9.42    0.62
   0  11   2   13.71    2.72
   0  11  -2   10.47    0.73
  -1 -11  -2    1.34    0.91
   1  11   2    0.35    1.06
   1  11   2    0.78    0.19
  -1  11  -2    1.31    0.26
  -1  11  -2    0.27    0.91
   1  11   2    1.05    0.26
  -1  11  -2    1.96    1.23
  -2 -11  -2    9.82    2.72
   2  11   2    7.98    0.65
  -2  11  -2    5.36    1.74
   2  11   2    7.79    0.58
  -2  11  -2    8.07    0.55
  -2  11  -2    9.50    2.22
  -3 -11  -2   35.10    5.14
  -3  11  -2   34.79    1.48
   3  11   2   33.83    1.62
   3  11   2   36.35    1.76
  -3  11  -2   29.63    3.74
  -3  11  -2   32.83    3.52
  -4 -11  -2    7.47    2.67
   4  11   2    8.35    0.72
   4  11   2    7.68    0.74
  -4  11  -2   11.56    2.84
   4  11   2    3.33    2.59
  -4  11  -2   10.60    2.27
  -5 -11  -2    6.86    3.23
   5  11   2   12.93    0.97
   5  11   2   11.98    3.90
  -5  11  -2   13.48    0.80
   5  11   2   12.52    1.02
  -5  11  -2   12.58    2.55
  -5  11  -2   11.14    2.83
   6  11   2    1.63    0.44
   6  11   2    2.41    0.48
  -6  11  -2    1.64    1.59
   7  11   2   18.47    1.34
   7  11   2   17.60    1.36
  -7  11  -2   18.92    4.59
   6  12  -2   42.03    2.12
   6  12  -2   42.63    2.28
   5  12  -2    0.55    0.26
   5  12  -2    0.08    0.13
  -4 -12   2   36.79    5.70
   4  12  -2   40.79    2.09
   4  12  -2   39.55    6.36
   4  12  -2   42.44    1.92
  -4  12   2   44.10    1.66
  -3 -12   2    2.41    1.45
  -2 -12   2   30.85    4.52
  -2  12   2   35.52    1.43
   2  12  -2   36.99    5.01
   2  12  -2   35.19    1.73
  -1 -12   2    1.13    0.88
  -1  12   2    0.39    0.12
   1  12  -2    0.04    0.10
  -1  12   2    0.50    0.81
   1  12  -2    0.44    0.12
  -1  12   2   -0.16    0.57
   0  12   2   -0.26    1.03
   0  12   2    0.20    0.15
   0  12  -2   -0.06    0.10
  -1  12  -2    0.11    0.11
   1  12   2    0.06    0.08
   1  12   2    0.31    0.30
   1  12   2    0.35    0.13
  -1  12  -2   -0.76    1.14
  -1  12  -2    1.86    0.97
  -2 -12  -2   42.76    5.08
  -2  12  -2   41.11    1.77
  -2  12  -2   41.93    4.32
  -2  12  -2   37.49    4.18
   2  12   2   39.46    1.88
  -3 -12  -2   -0.07    1.43
   3  12   2   -2.12    1.38
  -3  12  -2    0.58    1.07
  -3  12  -2    0.01    0.09
  -3  12  -2   -0.92    1.36
   3  12   2    0.52    0.23
   3  12   2    0.27    0.14
  -4 -12  -2   36.57    7.31
  -4  12  -2   39.63    4.66
  -4  12  -2   43.49    1.80
  -4  12  -2   43.39    4.11
   4  12   2   27.22    6.14
   4  12   2   45.19    2.30
   4  12   2   42.45    2.00
  -5  12  -2    0.68    0.18
   5  12   2    0.70    0.29
  -5  12  -2   -0.19    1.57
   5  12   2    0.37    0.20
  -6  12  -2   30.66    4.55
   6  12   2   34.27    1.99
   6  12   2   32.94    1.87
   6  13  -2    0.41    0.26
   5  13  -2   29.57    1.60
   5  13  -2   30.99    1.81
   4  13  -2    2.77    0.45
   4  13  -2    3.38    0.60
   3  13  -2   11.49    0.75
   3  13  -2   10.12    0.90
  -3  13   2   12.34    0.66
   2  13  -2   -1.28    1.85
   2  13  -2    1.09    0.21
   2  13  -2    1.27    0.32
  -2  13   2    0.66    0.18
  -1 -13   2   10.08    2.62
   1  13  -2   10.66    0.56
  -1  13   2   11.17    2.12
   1  13  -2   10.33    0.79
  -1  13   2    9.72    0.64
   1  13  -2   14.20    4.05
  -1  13   2   10.01    1.72
   0  13  -2   -0.74    0.73
   0  13  -2    0.93    1.35
   0  13   2    0.06    0.13
   0  13   2    0.13    1.08
   0  13  -2    0.27    0.13
  -1 -13  -2    3.31    1.54
   1  13   2    6.64    0.44
   1  13   2    7.32    0.61
  -1  13  -2    5.94    1.99
  -1  13  -2    7.26    0.57
  -1  13  -2    3.48    1.75
   1  13   2    6.86    2.37
   2  13   2    0.61    0.21
   2  13   2    0.95    0.22
  -2  13  -2   -0.49    1.04
  -2  13  -2    0.65    0.19
  -2  13  -2    0.62    1.06
  -3  13  -2   10.74    0.72
  -3  13  -2   11.89    2.91
   3  13   2   12.31    0.83
   3  13   2   11.76    0.91
  -4  13  -2    2.53    1.65
  -4  13  -2    2.24    0.38
   4  13   2    2.98    0.55
   4  13   2    2.45    0.43
  -5  13  -2   25.82    3.78
  -5  13  -2   25.81    1.27
   5  13   2   22.42    1.53
   5  13   2   22.91    1.42
   6  13   2    0.16    0.24
   6  13   2    0.88    0.28
  -6  13  -2    0.97    1.67
   5  14  -2    0.20    0.22
   5  14  -2   -0.31    0.14
   4  14  -2   21.74    1.21
   4  14  -2   20.95    1.42
   3  14  -2    6.87    0.57
  -3  14   2    6.29    0.49
   3  14  -2    7.28    0.71
   2  14  -2    6.32    0.47
   2  14  -2    6.41    0.77
  -2  14   2    5.49    0.46
  -1  14   2    7.31    0.57
   1  14  -2    6.85    0.64
  -1  14   2    8.33    1.62
  -1  14   2    9.61    1.79
   0  14  -2    0.03    1.09
   0  14   2    1.27    0.88
   0  14   2    0.34    0.16
  -1  14  -2   10.40    0.72
  -1  14  -2    9.33    2.46
   1  14   2    8.95    0.72
   2  14   2   10.40    0.82
  -2  14  -2    9.16    0.67
   2  14   2    9.34    0.63
  -2  14  -2    5.45    2.18
  -3  14  -2    7.73    2.50
   3  14   2    9.26    0.85
  -3  14  -2   10.54    0.71
   3  14   2    9.18    0.70
  -4  14  -2   25.69    1.30
   4  14   2   26.16    1.44
   4  14   2   24.81    1.57
  -5  14  -2    0.05    0.17
   5  14   2    0.34    0.26
   5  14   2   -0.04    0.20
   3  15  -2    7.58    0.59
   3  15  -2    7.75    0.76
   2  15  -2    4.43    0.40
   2  15  -2    4.47    0.54
  -2  15   2    5.38    0.46
  -1  15   2    0.30    0.16
   1  15  -2    0.42    0.18
   0  15   2    7.97    0.64
   0  15  -2    7.37    2.45
   0  15  -2    7.32    0.67
   0  15   2    8.92    2.12
   1  15   2    0.54    0.26
  -1  15  -2    3.56    1.83
  -2  15  -2    6.44    0.56
  -2  15  -2    7.16    2.34
   2  15   2    5.60    0.47
  -3  15  -2    8.35    0.65
   3  15   2    7.94    0.77
  -3  15  -2    6.48    2.22
   3  15   2    7.22    0.61
  10   0  -3    0.24    0.21
  10   0  -3   -4.39    3.88
 -10   0   3   -0.37    3.95
  10   0  -3   -0.05    0.14
  -9   0   3   40.38    6.54
   9   0  -3   28.91    6.88
   9   0  -3   33.00    1.72
   9   0  -3   30.27    1.59
   8   0  -3   -0.13    0.12
   8   0  -3    0.94    2.14
   8   0  -3    0.32    0.13
   7   0  -3   16.43    1.00
  -7   0   3    9.47    3.10
   7   0  -3   12.95    3.95
   7   0  -3   15.73    0.93
   6   0  -3    0.19    0.09
  -6   0   3    1.27    1.01
   6   0  -3    0.22    0.92
   6   0  -3    0.01    0.06
   5   0  -3   11.85    0.69
  -5   0   3   11.68    3.06
   5   0  -3    7.86    2.64
   5   0  -3   12.07    0.73
   4   0  -3    0.03    0.56
  -4   0   3    0.04    0.06
  -4   0   3   -0.14    0.47
   4   0  -3    0.06    0.06
  -4   0   3    0.16    0.11
   4   0  -3   -0.05    0.04
  -3   0   3   18.56    0.88
   3   0  -3   18.36    0.84
  -3   0   3   19.58    0.88
   3   0  -3   17.22    2.70
   3   0  -3   17.86    0.81
  -3   0   3   21.54    2.88
  -2   0   3    0.14    0.26
   2   0  -3    0.03    0.03
   2   0  -3    0.03    0.04
  -2   0   3    0.00    0.02
  -2   0   3   -0.01    0.03
  -1   0   3    7.88    0.36
  -1   0   3    8.44    1.12
  -1   0   3    7.59    0.39
   1   0  -3    7.34    0.33
   0   0  -3    0.03    0.02
   0   0   3    0.02    0.02
   0   0   3    0.02    0.02
   0   0  -3   -0.01    0.02
   0   0  -3   -0.08    0.10
   0   0   3    0.08    0.19
   1   0   3    1.90    0.76
   1   0   3    2.72    0.23
  -1   0  -3    2.95    0.95
   2   0   3   -0.47    0.45
  -3   0  -3   40.65    4.68
   3   0   3   41.23    4.62
   3   0   3   33.17    1.46
   4   0   3    0.67    0.95
  -4   0  -3   -0.41    0.56
   5   0   3   44.22    5.97
  -5   0  -3   44.70    6.40
   5   0   3   41.26    1.85
   6   0   3    0.67    1.23
  -6   0  -3    0.45    1.25
   7   0   3   24.68    1.37
   7   0   3   19.54    4.96
   7   0   3   23.36    1.37
  -7   0  -3   18.29    5.13
   8   0   3    0.00    0.15
  -8   0  -3   -1.35    1.75
   8   0   3   -0.83    2.02
   9   0   3    5.16    0.60
   9   0   3    0.68    2.79
  -9   0  -3    4.70    2.84
  10   0   3    0.11    0.21
  10   0   3   -1.96    3.23
 -10   0  -3    3.96    3.41
  10  -1  -3    2.05    0.60
  10  -1  -3    4.56    3.87
  10  -1  -3    1.68    0.40
 -10  -1   3    1.28    2.98
  10   1  -3    1.17    0.35
  10   1  -3    1.70    0.38
 -10   1   3   -1.30    2.68
  10   1  -3   -0.25    3.87
   9  -1  -3    4.26    3.73
   9  -1  -3    1.98    0.34
  -9  -1   3    1.29    3.09
   9  -1  -3    2.52    0.43
  -9   1   3    0.81    2.33
   9   1  -3    1.81    0.35
   9   1  -3    2.21    3.25
   9   1  -3    1.50    0.31
   8  -1  -3    9.25    0.66
   8  -1  -3    9.38    0.73
  -8  -1   3    5.01    2.92
   8  -1  -3    6.19    3.11
   8   1  -3    8.73    0.72
  -8   1   3    7.59    3.22
   8   1  -3    3.70    2.46
   8   1  -3    9.22    0.77
   7  -1  -3   26.15    1.32
  -7  -1   3   23.06    5.52
   7  -1  -3   26.05    1.23
   7  -1  -3   18.11    4.51
  -7   1   3   17.23    3.97
   7   1  -3   25.75    1.37
   7   1  -3   22.14    5.13
   7   1  -3   25.13    1.32
   6  -1  -3   -0.35    0.77
  -6  -1   3   -0.21    0.77
   6  -1  -3    0.61    0.16
   6   1  -3    0.58    0.16
   6   1  -3    1.52    1.27
   6   1  -3    0.55    0.17
  -6   1   3    1.23    0.96
  -5  -1   3   26.64    4.27
   5  -1  -3   28.04    1.27
   5  -1  -3   27.43    1.20
   5   1  -3   27.50    1.52
   5   1  -3   29.12    4.83
  -5   1   3   28.51    1.36
   5   1  -3   28.05    1.31
  -5   1   3   27.52    4.15
  -4  -1   3    1.52    0.86
   4  -1  -3    0.35    0.11
   4  -1  -3    0.40    0.12
  -4  -1   3    0.52    0.14
  -4  -1   3    0.34    0.11
  -4   1   3    0.39    0.13
   4   1  -3    0.62    0.65
  -4   1   3    0.66    0.15
  -4   1   3    2.96    1.10
   4   1  -3    0.22    0.11
   4   1  -3    0.67    0.16
  -3  -1   3   23.58    1.08
  -3  -1   3   26.40    3.32
   3  -1  -3   24.83    1.01
  -3  -1   3   22.56    1.07
   3  -1  -3   27.42    3.27
   3  -1  -3   23.86    0.95
  -3   1   3   23.40    2.89
   3   1  -3   25.42    1.06
  -3   1   3   25.76    1.04
  -3   1   3   23.21    1.03
   3   1  -3   25.20    3.50
   3   1  -3   23.32    1.04
   2  -1  -3    1.04    0.10
   2  -1  -3    1.22    0.13
  -2  -1   3    1.02    0.17
   2  -1  -3    1.29    0.62
  -2  -1   3    1.79    0.80
  -2  -1   3    1.14    0.18
   2   1  -3    0.87    0.14
  -2   1   3    1.22    0.12
   2   1  -3    1.36    0.15
  -2   1   3    1.04    0.51
  -2   1   3    1.29    0.14
   2   1  -3    1.79    0.83
   1  -1  -3    1.02    0.42
  -1  -1   3    0.92    0.11
  -1  -1   3    1.09    0.51
   1  -1  -3    0.90    0.09
  -1  -1   3    0.87    0.10
   1  -1  -3    0.98    0.07
  -1   1   3    1.08    0.10
   1   1  -3    0.28    0.37
  -1   1   3    0.96    0.08
   1   1  -3    1.13    0.23
  -1   1   3    1.27    0.42
   0  -1   3    0.08    0.04
   0  -1   3    0.05    0.03
   0  -1  -3    0.35    0.26
   0  -1  -3    0.08    0.04
   0   1  -3    0.11    0.04
   0   1   3    0.23    0.21
   0   1  -3    0.02    0.02
   0   1  -3   -0.09    0.14
   0   1   3    0.14    0.06
   1  -1   3    2.77    0.21
   1  -1   3    2.84    0.92
  -1  -1  -3    2.40    0.83
   1  -1   3    2.79    0.18
   1   1   3    3.47    1.10
  -1   1  -3    3.08    0.24
  -1   1  -3    4.37    1.16
   2  -1   3    1.08    0.12
   2  -1   3    0.57    0.52
  -2  -1  -3    0.89    0.82
  -2   1  -3    0.03    0.45
   2   1   3    1.47    0.77
   3  -1   3    2.79    1.30
  -3  -1  -3    2.58    1.56
   3  -1   3    3.53    0.33
   3   1   3    6.68    2.75
   3   1   3    4.01    0.36
  -3   1  -3    2.53    1.19
   4  -1   3    2.09    1.30
  -4  -1  -3    7.43    2.56
   4  -1   3    4.87    0.43
   4   1   3    4.57    0.43
  -4   1  -3    6.65    2.44
   4   1   3    5.01    2.33
   5  -1   3    7.55    2.79
  -5  -1  -3    8.65    2.95
   5  -1   3    7.21    0.57
  -5   1  -3    7.76    2.84
   5   1   3    7.86    0.63
   5   1   3    5.77    2.44
   6  -1   3   12.67    3.50
   6  -1   3    9.72    0.72
  -6  -1  -3    7.48    2.98
   6   1   3    9.87    0.77
   6   1   3    7.81    2.86
  -6   1  -3    7.42    2.83
   7  -1   3   24.39    1.35
   7  -1   3   25.95    1.35
   7  -1   3   16.61    4.55
  -7  -1  -3   17.42    4.59
   7   1   3   21.73    1.33
   7   1   3   25.34    5.62
  -7   1  -3   22.10    5.73
   7   1   3   21.17    1.34
  -8  -1  -3    2.75    2.71
   8  -1   3    1.03    0.26
   8  -1   3    4.83    2.58
   8  -1   3    1.42    0.34
   8   1   3    2.45    2.20
   8   1   3    1.39    0.36
  -8   1  -3    2.70    2.64
   8   1   3    1.50    0.38
  -9  -1  -3   14.74    4.87
   9  -1   3   21.27    1.37
   9  -1   3   22.67    6.12
   9  -1   3   22.16    1.38
   9   1   3   17.01    5.44
  -9   1  -3   21.15    5.55
   9   1   3   23.06    1.46
   9   1   3   22.57    1.42
 -10  -1  -3    3.30    3.38
  10  -1   3    2.23    3.46
  10  -1   3    4.66    0.74
  10  -1   3    4.79    0.60
 -10   1  -3    3.80    3.95
  10   1   3   -3.66    4.11
  10   1   3    4.71    0.76
  10   1   3    4.84    0.74
  10  -2  -3    4.89    0.50
 -10  -2   3    8.58    4.09
  10  -2  -3    4.96    0.59
  10   2  -3    5.76    0.68
  10   2  -3    4.78    0.58
 -10   2   3   -0.18    2.96
  10   2  -3    7.11    5.17
  -9  -2   3   14.43    4.28
   9  -2  -3    9.98    0.80
   9  -2  -3   10.43    0.70
   9   2  -3    4.23    3.37
  -9   2   3    7.87    2.66
   9   2  -3   11.13    0.93
   9   2  -3    9.81    0.84
   8  -2  -3    5.47    3.20
  -8  -2   3    3.38    2.55
   8  -2  -3    4.92    0.44
   8  -2  -3    5.19    0.50
   8   2  -3    5.01    0.55
   8   2  -3    5.75    0.63
  -8   2   3    4.86    2.62
   8   2  -3    0.97    2.27
   7  -2  -3   13.76    4.22
  -7  -2   3   15.90    4.14
   7  -2  -3   19.52    1.08
   7  -2  -3   20.36    1.12
  -7   2   3   12.51    3.52
   7   2  -3   22.45    1.24
   7   2  -3   21.69    1.21
   7   2  -3   20.74    5.52
   6  -2  -3   39.67    1.64
   6  -2  -3   38.98    1.52
   6  -2  -3   40.43    5.40
  -6  -2   3   29.56    4.92
   6   2  -3   36.58    1.72
  -6   2   3   33.75    4.68
   6   2  -3   26.43    5.60
   6   2  -3   37.09    1.73
   5  -2  -3    0.39    1.07
   5  -2  -3    1.07    0.21
   5  -2  -3    0.93    0.17
  -5  -2   3    0.78    0.92
  -5   2   3    1.26    0.27
  -5   2   3    0.33    1.04
   5   2  -3    2.10    1.29
   5   2  -3    1.01    0.25
   5   2  -3    0.95    0.22
   4  -2  -3   14.35    0.64
  -4  -2   3   14.49    0.86
  -4  -2   3   15.01    0.88
  -4  -2   3   14.58    3.42
   4  -2  -3   15.78    3.31
   4  -2  -3   14.23    0.72
  -4   2   3   17.36    2.75
   4   2  -3   14.59    0.81
   4   2  -3   18.40    4.12
  -4   2   3   15.12    0.78
  -4   2   3   13.77    0.78
   4   2  -3   14.39    0.81
  -3  -2   3    4.18    0.36
  -3  -2   3    4.82    1.58
   3  -2  -3    4.02    1.42
   3  -2  -3    3.92    0.22
  -3  -2   3    4.02    0.35
   3  -2  -3    3.73    0.27
   3   2  -3    4.10    0.34
  -3   2   3    5.22    1.34
  -3   2   3    4.45    0.32
   3   2  -3    3.45    0.31
   3   2  -3    2.67    1.24
  -3   2   3    3.92    0.28
  -2  -2   3    5.16    1.56
  -2  -2   3    5.73    0.38
   2  -2  -3    8.00    1.28
  -2  -2   3    5.46    0.37
   2  -2  -3    5.22    0.29
  -2   2   3    4.41    1.00
  -2   2   3    5.82    0.32
  -2   2   3    5.84    0.30
   2   2  -3    5.15    0.36
   2   2  -3    6.01    0.37
   2   2  -3    4.72    1.34
  -1  -2   3    2.28    0.19
   1  -2  -3    2.29    0.49
  -1  -2   3    2.06    0.17
  -1  -2   3    2.72    0.90
   1  -2  -3    1.96    0.14
   1   2  -3    2.15    0.17
   1   2  -3    1.79    0.72
  -1   2   3    2.22    0.45
  -1   2   3    1.99    0.18
   1   2  -3    2.07    0.18
   0  -2   3    1.97    0.17
   0  -2  -3    1.65    0.55
   0  -2   3    1.96    0.16
   0  -2   3    1.50    0.60
   0  -2  -3    1.99    0.18
   0   2   3    2.53    0.67
   0   2   3    1.93    0.17
   0   2  -3    2.10    0.15
   0   2  -3    2.48    0.81
   1  -2   3    1.00    0.49
  -1  -2  -3    1.09    0.73
   1  -2   3    0.85    0.10
  -1   2  -3    0.70    0.11
  -1   2  -3    0.45    0.46
   1   2   3    1.10    0.93
  -1   2  -3    0.70    0.12
   2  -2   3   12.05    1.93
   2  -2   3   13.30    0.57
  -2  -2  -3   15.36    2.53
   2  -2   3   13.26    0.64
  -2   2  -3   13.12    0.59
   2   2   3   12.48    0.67
   2   2   3   10.93    2.41
  -2   2  -3   16.59    2.50
   3  -2   3   12.32    0.66
   3  -2   3   12.04    0.57
   3  -2   3   11.75    2.81
  -3  -2  -3   11.34    2.95
  -3   2  -3    9.32    2.55
   3   2   3   11.49    0.70
   3   2   3   14.00    3.38
   4  -2   3    1.02    0.20
  -4  -2  -3    1.24    1.21
   4  -2   3    1.11    0.19
   4  -2   3   -0.04    0.80
   4   2   3    2.16    1.36
   4   2   3    0.97    0.22
  -4   2  -3   -0.45    0.99
   5  -2   3    2.78    0.29
   5  -2   3    2.62    0.32
   5  -2   3    0.96    1.08
  -5  -2  -3    2.11    1.35
   5   2   3    5.55    2.62
  -5   2  -3    3.10    1.70
   5   2   3    3.22    0.40
   6  -2   3    1.33    1.37
  -6  -2  -3    2.26    1.81
   6   2   3    4.06    1.96
  -6   2  -3    0.58    1.43
   7  -2   3    6.42    0.58
   7  -2   3    1.64    1.68
   7  -2   3    5.42    0.55
  -7  -2  -3   11.00    3.60
  -7   2  -3    2.65    2.25
   7   2   3    3.45    2.25
   7   2   3    6.45    0.65
   7   2   3    6.61    0.67
   8  -2   3   17.03    4.42
   8  -2   3   24.94    1.36
  -8  -2  -3   22.52    5.84
   8  -2   3   24.49    1.40
  -8   2  -3   19.32    5.25
   8   2   3   26.96    1.61
   8   2   3   20.84    5.90
   9  -2   3    0.75    0.24
  -9  -2  -3    2.43    2.73
   9  -2   3    0.42    0.18
   9  -2   3   -1.60    2.33
   9   2   3    0.19    0.19
  -9   2  -3   -0.87    2.75
   9   2   3    3.08    3.10
   9   2   3    0.36    0.18
  10  -2   3   14.84    1.11
  10  -2   3   12.81    4.90
 -10  -2  -3   20.32    6.24
  10  -2   3   13.66    1.01
  10   2   3   14.98    1.20
 -10   2  -3    6.41    5.15
  10   2   3   14.28    1.20
  10   2   3   10.47    6.31
  10  -3  -3   43.16    2.02
  10  -3  -3   43.67    8.73
  10  -3  -3   40.77    1.71
 -10  -3   3   32.60    6.98
  10   3  -3   43.57    2.24
 -10   3   3   33.77    6.89
  10   3  -3   33.62    8.98
  10   3  -3   42.35    2.16
   9  -3  -3    1.89    2.66
   9  -3  -3    2.06    0.63
  -9  -3   3    3.86    3.10
   9  -3  -3    2.47    0.36
  -9   3   3    1.92    2.12
   9   3  -3    3.15    0.56
   9   3  -3    1.31    3.73
   9   3  -3    2.03    0.47
   8  -3  -3   49.40    7.19
   8  -3  -3   40.34    1.82
   8  -3  -3   40.28    1.60
   8  -3  -3   39.54    1.81
   8   3  -3   42.97    8.41
   8   3  -3   36.56    2.76
   8   3  -3   41.04    2.03
  -8   3   3   37.54    6.01
   7  -3  -3    0.18    0.13
   7  -3  -3    0.14    0.09
  -7  -3   3   -1.12    1.11
   7  -3  -3    0.61    1.31
   7  -3  -3    0.18    0.10
   7   3  -3    0.45    0.19
   7   3  -3    0.68    0.23
   7   3  -3    1.56    1.38
  -7   3   3    1.62    1.33
   6  -3  -3   11.96    0.84
   6  -3  -3    7.54    2.60
   6  -3  -3   12.60    0.60
  -6  -3   3    9.96    2.82
   6  -3  -3   11.53    0.57
   6   3  -3   11.18    0.81
   6   3  -3   11.54    0.83
   6   3  -3    8.55    3.11
  -6   3   3    9.64    2.87
   5  -3  -3    2.10    1.46
   5  -3  -3    1.47    0.15
  -5  -3   3    0.43    1.03
   5  -3  -3    1.63    0.15
   5  -3  -3    1.43    0.24
   5   3  -3    1.59    1.24
  -5   3   3    1.64    0.29
  -5   3   3    1.65    1.11
   5   3  -3    1.42    0.30
   5   3  -3    1.14    0.26
  -4  -3   3    6.07    0.51
   4  -3  -3    4.54    1.64
   4  -3  -3    5.80    0.38
  -4  -3   3    6.17    2.31
   4   3  -3    9.09    2.85
  -4   3   3    6.57    1.97
  -4   3   3    5.81    0.42
   4   3  -3    5.69    0.47
  -4   3   3    6.68    0.46
   4   3  -3    6.08    0.50
   3  -3  -3    3.43    0.25
  -3  -3   3    5.86    1.97
   3  -3  -3    2.81    1.05
  -3  -3   3    3.96    0.37
  -3  -3   3    3.49    0.40
  -3   3   3    3.11    1.03
   3   3  -3    4.75    1.96
   3   3  -3    3.92    0.35
   3   3  -3    3.70    0.33
  -3   3   3    3.64    0.28
  -3   3   3    3.76    0.26
  -2  -3   3   33.59    1.36
   2  -3  -3   31.62    1.26
  -2  -3   3   38.53    3.91
   2  -3  -3   33.14    2.63
  -2  -3   3   34.53    1.39
  -2   3   3   35.51    2.38
   2   3  -3   33.94    1.33
   2   3  -3   36.22    3.93
   2   3  -3   34.48    1.37
  -2   3   3   33.18    1.21
   1  -3  -3    4.53    0.24
  -1  -3   3    5.31    1.40
  -1  -3   3    3.65    0.26
  -1  -3   3    4.13    0.30
   1   3  -3    3.04    0.98
   1   3  -3    4.17    0.29
  -1   3   3    3.83    0.25
   1   3  -3    4.14    0.27
   0  -3   3    2.63    0.17
   0  -3   3    2.51    0.80
   0  -3   3    2.66    0.21
   0  -3  -3    2.56    0.70
   0   3   3    3.28    0.81
   0   3  -3    2.58    0.20
   0   3  -3    2.19    0.86
   0   3  -3    2.73    0.18
   0   3   3    2.93    0.22
   1  -3   3    3.22    0.19
   1  -3   3    3.53    0.22
  -1  -3  -3    3.77    1.28
  -1   3  -3    2.43    0.86
  -1   3  -3    3.15    0.22
   1   3   3    3.30    1.13
  -1   3  -3    3.15    0.22
   2  -3   3    6.11    0.37
   2  -3   3    7.17    0.36
  -2  -3  -3    5.32    1.68
   2   3   3    6.86    0.46
  -2   3  -3    7.42    0.39
   2   3   3    6.10    1.80
  -2   3  -3    4.78    1.37
   3  -3   3    4.07    0.27
   3  -3   3    4.22    0.34
  -3  -3  -3    2.05    1.48
   3   3   3    4.06    0.38
  -3   3  -3    2.54    1.57
   3   3   3    3.47    1.62
   4  -3   3   19.49    0.83
   4  -3   3   17.66    0.90
  -4  -3  -3   17.56    4.05
  -4   3  -3   16.57    3.81
   4   3   3   22.83    4.87
   4   3   3   16.97    1.01
  -5  -3  -3    1.31    1.32
   5  -3   3    1.92    0.30
   5  -3   3    1.50    0.27
   5   3   3    1.16    0.28
   5   3   3    1.66    1.53
  -5   3  -3    1.20    1.07
   6  -3   3   43.99    5.64
  -6  -3  -3   40.71    6.32
   6  -3   3   46.62    2.33
   6  -3   3   56.48    2.01
   6   3   3   53.28    2.34
  -6   3  -3   40.10    5.76
   6   3   3   52.78    6.69
  -7  -3  -3    5.31    2.36
   7  -3   3    3.17    2.09
   7  -3   3    2.80    0.45
   7  -3   3    3.41    0.39
  -7   3  -3    0.00    1.32
   7   3   3    1.90    1.84
   7   3   3    4.30    0.68
   7   3   3    3.74    0.60
   8  -3   3    6.57    2.57
   8  -3   3    9.74    0.72
  -8  -3  -3   10.34    3.64
   8  -3   3    9.53    0.74
   8   3   3    8.97    3.93
   8   3   3    8.83    0.84
  -8   3  -3    5.12    2.47
   8   3   3    9.29    0.88
   9  -3   3    0.97    2.00
   9  -3   3    0.84    0.42
  -9  -3  -3    1.62    3.30
   9  -3   3    0.65    0.26
  -9   3  -3    4.54    3.49
   9   3   3    1.45    0.42
   9   3   3    1.52    0.43
   9   3   3   -1.37    2.54
  10  -3   3    2.93    0.50
  10  -3   3    1.17    3.73
 -10   3  -3    4.69    3.82
  10   3   3    7.01    5.59
  10   3   3    3.41    0.59
  10  -4  -3    0.67    0.22
  10  -4  -3   -0.25    3.45
 -10  -4   3    3.42    3.86
  10   4  -3    5.96    5.98
  10   4  -3    1.36    0.33
 -10   4   3    4.00    3.09
  10   4  -3    1.04    0.33
   9  -4  -3    9.33    4.81
   9  -4  -3    7.60    0.65
  -9  -4   3    2.42    2.54
   9   4  -3    6.19    3.98
  -9   4   3    9.09    3.99
   9   4  -3    8.03    0.81
   9   4  -3    7.78    0.79
  -8  -4   3    6.98    3.46
   8  -4  -3   11.18    6.97
   8  -4  -3   10.99    0.75
  -8   4   3   13.40    5.92
   8   4  -3    9.27    3.96
   8   4  -3   11.65    0.93
   8   4  -3   10.77    0.91
   7  -4  -3    4.22    3.29
   7  -4  -3    1.70    0.29
  -7  -4   3    2.24    1.99
   7   4  -3    1.67    0.37
   7   4  -3    2.92    2.89
   7   4  -3    2.78    0.51
   6  -4  -3   38.39    5.62
  -6  -4   3   37.73    5.50
   6  -4  -3   39.55    1.64
   6   4  -3   38.74    1.89
  -6   4   3   40.25    5.41
   6   4  -3   46.32    6.34
   6   4  -3   42.47    1.92
   5  -4  -3    0.29    0.75
  -5  -4   3    0.49    0.68
   5  -4  -3    0.86    0.17
  -5   4   3   -0.74    0.59
  -5   4   3    0.59    0.17
   5   4  -3    0.73    0.21
   5   4  -3    0.69    0.21
   5   4  -3   -0.83    0.78
   4  -4  -3   22.91    3.22
  -4  -4   3   22.69    4.63
   4  -4  -3   22.01    0.93
   4   4  -3   22.04    1.57
  -4   4   3   27.54    3.24
   4   4  -3   21.69    1.12
  -4   4   3   21.55    0.98
   4   4  -3   24.12    4.97
   3  -4  -3    5.70    1.40
  -3  -4   3    6.92    2.39
   3  -4  -3    6.08    0.32
  -3  -4   3    6.17    0.49
  -3  -4   3    5.34    0.46
  -3   4   3    6.62    1.45
   3   4  -3    4.23    1.80
   3   4  -3    6.62    0.49
  -3   4   3    5.61    0.32
   3   4  -3    5.45    0.43
  -3   4   3    5.73    0.35
   2  -4  -3    2.68    0.46
  -2  -4   3    2.83    0.28
  -2  -4   3    0.84    0.70
   2  -4  -3    2.04    0.15
  -2  -4   3    2.44    0.26
  -2   4   3    2.51    0.17
   2   4  -3    2.63    0.27
   2   4  -3    3.30    1.43
   2   4  -3    2.12    0.22
  -2   4   3    2.83    0.46
  -1  -4   3    0.26    0.09
   1  -4  -3    0.21    0.06
  -1  -4   3    0.17    0.32
  -1  -4   3    0.33    0.08
  -1   4   3    0.23    0.06
   1   4  -3   -0.09    0.32
   1   4  -3    0.29    0.08
   1   4  -3    0.27    0.09
   0  -4  -3    1.93    0.67
   0  -4   3    1.58    0.16
   0  -4   3    1.68    0.72
   0  -4   3    1.58    0.14
   0   4   3    1.67    0.18
   0   4   3    2.46    0.76
   0   4  -3    1.72    0.17
   0   4  -3    1.43    0.69
   0   4  -3    1.56    0.13
   1  -4   3    1.69    0.15
  -1  -4  -3    0.74    0.69
   1  -4   3    1.58    0.12
  -1   4  -3    2.07    0.85
  -1   4  -3    1.40    0.76
  -1   4  -3    1.86    0.15
  -1   4  -3    1.64    0.16
   1   4   3    1.42    0.17
   1   4   3    1.22    0.69
  -2  -4  -3   18.01    2.87
   2  -4   3   23.32    2.61
   2  -4   3   20.35    0.81
   2  -4   3   20.17    0.78
  -2   4  -3   19.22    0.83
   2   4   3   19.91    0.96
  -2   4  -3   23.87    2.98
   2   4   3   21.70    3.24
   3  -4   3    3.15    1.18
   3  -4   3    2.17    0.18
   3  -4   3    1.79    0.20
  -3  -4  -3    4.15    1.88
   3  -4   3    1.77    0.24
   3   4   3    1.61    0.28
  -3   4  -3    2.90    1.30
   3   4   3    0.59    0.91
  -3   4  -3    2.28    0.22
   4  -4   3    4.59    0.31
   4  -4   3    4.14    0.35
  -4  -4  -3    3.70    1.87
   4  -4   3    3.98    1.57
   4   4   3    2.33    1.76
   4   4   3    4.93    0.48
  -4   4  -3    4.84    2.22
   5  -4   3    6.32    2.26
   5  -4   3    6.38    0.41
  -5  -4  -3    4.60    2.35
   5  -4   3    5.86    0.45
   5   4   3    5.63    0.58
   5   4   3    2.39    1.82
  -5   4  -3    7.43    2.76
   6  -4   3    8.92    0.62
   6  -4   3    8.45    2.78
   6  -4   3    8.22    0.57
   6  -4   3    7.76    0.50
  -6  -4  -3    5.78    2.25
  -6   4  -3    3.30    1.95
   6   4   3    9.54    3.38
   6   4   3    5.77    0.65
   6   4   3    7.64    0.71
   7  -4   3    1.51    2.05
   7  -4   3    1.16    0.29
   7  -4   3    1.54    0.30
  -7  -4  -3    0.25    1.89
  -7   4  -3    3.71    2.03
   7   4   3    1.84    0.40
   7   4   3    1.29    0.36
   7   4   3    2.73    2.28
   8  -4   3   15.71    1.01
  -8  -4  -3   14.54    4.86
   8  -4   3   16.88    0.98
   8   4   3   15.50    6.39
  -8   4  -3   17.58    5.27
   8   4   3   15.29    1.20
   8   4   3   17.86    1.27
  -9  -4  -3    1.99    2.85
   9  -4   3    0.59    0.19
   9  -4   3    0.66    0.24
   9   4   3    0.47    0.24
   9   4   3    0.19    0.25
  -9   4  -3   -0.57    2.20
  10  -4   3   25.26    1.36
 -10  -4  -3   21.07    6.78
  10  -4   3   26.87    1.51
 -10   4  -3   19.44    6.39
  10   4   3   28.72    1.84
  10   4   3   19.36    7.23
  10  -5  -3    6.73    0.63
 -10  -5   3    4.19    3.38
  10   5  -3    6.48    0.74
  10   5  -3    6.67    1.14
  10   5  -3   12.68    5.87
   9  -5  -3    2.27    0.36
   9  -5  -3    1.24    2.41
  -9  -5   3    1.35    2.60
   9   5  -3   10.12    4.36
   9   5  -3    3.29    0.57
   9   5  -3    2.86    0.49
  -9   5   3    3.55    2.46
   8  -5  -3    5.08    0.47
   8  -5  -3    4.67    2.45
  -8  -5   3    4.15    3.06
  -8   5   3    5.10    2.80
   8   5  -3    5.66    0.65
   8   5  -3    3.26    2.61
   8   5  -3    5.63    0.65
   7  -5  -3    8.55    0.59
  -7  -5   3   10.07    4.04
   7  -5  -3   12.30    3.36
   7   5  -3   13.55    4.44
  -7   5   3    8.24    2.70
   7   5  -3   10.18    0.82
   7   5  -3    9.21    0.81
   6  -5  -3    0.97    0.98
  -6  -5   3    1.99    1.84
  -6   5   3    1.22    1.16
   6   5  -3    2.65    1.94
   6   5  -3    1.34    0.32
   6   5  -3    2.21    0.40
   5  -5  -3   18.39    0.84
  -5  -5   3   13.36    3.40
   5  -5  -3   20.88    2.89
   5   5  -3   18.49    1.08
  -5   5   3   15.65    2.64
  -5   5   3   19.73    0.98
   5   5  -3   18.62    1.11
   5   5  -3   15.46    3.88
  -4  -5   3    1.30    1.19
   4  -5  -3    1.06    0.13
   4  -5  -3    1.16    0.81
   4   5  -3    0.95    0.24
  -4   5   3    1.97    0.93
   4   5  -3    1.26    0.27
  -4   5   3    1.29    0.20
   4   5  -3    1.17    1.08
  -3  -5   3    5.71    2.08
  -3  -5   3    4.29    0.41
   3  -5  -3    4.07    0.24
   3  -5  -3    5.39    1.09
   3   5  -3    6.32    2.43
   3   5  -3    4.20    0.38
  -3   5   3    4.15    0.28
  -3   5   3    4.21    1.04
   3   5  -3    4.24    0.40
  -2  -5   3    7.43    0.50
  -2  -5   3    6.32    0.49
  -2  -5   3    6.17    2.00
   2   5  -3    7.35    0.47
   2   5  -3    7.99    0.53
   2   5  -3    9.70    2.61
  -1  -5   3    0.64    0.14
  -1  -5   3    0.68    0.15
  -1  -5   3    0.41    0.49
   1   5  -3    0.65    0.13
   1   5  -3    0.67    0.15
  -1   5   3    0.77    0.10
   1   5  -3    0.76    0.71
   0  -5   3    0.48    0.12
   0  -5   3    0.68    0.45
   0  -5  -3    0.93    0.51
   0  -5   3    0.49    0.10
   0   5  -3    0.76    0.11
   0   5  -3    0.70    0.14
   0   5   3    0.30    0.41
   0   5   3    0.29    0.10
   0   5  -3    0.83    0.57
   1  -5   3    1.35    0.11
  -1  -5  -3    1.40    0.78
   1  -5   3    1.30    0.14
  -1   5  -3    2.27    0.91
  -1   5  -3    1.39    0.16
  -1   5  -3    1.94    0.83
   1   5   3    1.21    0.93
  -1   5  -3    1.17    0.12
   1   5   3    1.57    0.18
   2  -5   3    0.98    0.63
  -2  -5  -3    1.05    0.91
   2   5   3    1.52    0.95
   2   5   3    0.72    0.18
  -2   5  -3    1.02    0.17
  -2   5  -3    0.21    0.48
   3  -5   3   15.81    0.64
   3  -5   3   14.36    0.65
   3  -5   3   13.20    0.67
   3  -5   3   13.83    2.29
  -3  -5  -3   20.19    4.28
   3   5   3   14.26    0.85
   3   5   3   15.59    3.56
  -3   5  -3   19.13    3.17
  -3   5  -3   14.72    0.71
  -4  -5  -3    8.74    2.95
   4  -5   3    6.83    0.48
   4  -5   3    7.13    0.45
   4  -5   3    8.30    0.42
   4  -5   3    6.38    1.94
  -4   5  -3    7.54    2.82
   4   5   3   10.54    3.32
   4   5   3    7.53    0.63
   5  -5   3    1.15    0.82
  -5  -5  -3    0.80    1.41
   5  -5   3    0.99    0.20
   5   5   3    2.24    1.49
  -5   5  -3    1.42    1.23
   5   5   3    1.34    0.31
  -6  -5  -3   21.71    5.25
   6  -5   3   21.53    0.92
   6  -5   3   19.97    0.98
   6  -5   3   18.70    1.00
   6  -5   3   18.64    4.00
   6   5   3   20.22    1.31
   6   5   3   19.30    1.26
  -6   5  -3   22.17    5.32
   6   5   3   24.19    5.91
  -7  -5  -3    7.76    3.10
   7  -5   3    8.83    0.58
   7  -5   3    7.90    0.51
   7  -5   3    7.64    0.60
   7  -5   3    4.83    2.39
  -7   5  -3    2.95    2.04
   7   5   3    4.40    2.84
   7   5   3    8.72    0.84
   7   5   3    8.11    0.80
   8  -5   3    0.38    0.16
  -8  -5  -3    1.59    2.34
   8  -5   3    0.45    0.18
   8  -5   3    0.86    1.72
   8   5   3    0.37    0.25
  -8   5  -3    0.37    1.88
   8   5   3   -2.76    2.52
   8   5   3    0.35    0.21
   9  -5   3   22.79    5.94
  -9  -5  -3   16.44    5.48
   9  -5   3   22.44    1.26
   9  -5   3   21.61    1.12
  -9   5  -3   19.47    5.55
   9   5   3   24.53    1.59
   9   5   3   13.54    5.03
   9   5   3   21.28    1.54
 -10  -5  -3   -2.62    3.57
  10  -5   3    1.08    0.31
  10  -5   3    0.72    0.27
  10   5   3    1.33    0.44
  10   5   3    0.23    0.27
  10   5   3    4.64    4.68
   9  -6  -3   35.84    1.68
  -9  -6   3   31.70    7.23
   9  -6  -3   27.07    5.89
   9   6  -3   40.61    2.15
  -9   6   3   39.58    6.22
   9   6  -3   35.27    9.05
   9   6  -3   40.69    2.14
  -8  -6   3    2.75    2.20
   8  -6  -3    3.07    0.35
   8  -6  -3    3.35    2.19
   8   6  -3    2.88    0.57
   8   6  -3    3.49    3.15
  -8   6   3    2.25    2.00
   8   6  -3    2.89    0.52
   7  -6  -3   14.82    3.72
   7  -6  -3   14.61    0.82
  -7  -6   3   20.28    5.13
   7   6  -3   10.70    4.21
   7   6  -3   19.03    1.22
   7   6  -3   16.35    1.13
  -7   6   3   20.18    3.45
   6  -6  -3    2.99    0.28
  -6  -6   3    2.66    1.92
   6  -6  -3    1.79    1.27
   6   6  -3    2.27    0.43
   6   6  -3    2.78    0.51
  -6   6   3    3.05    1.46
   6   6  -3    3.03    2.06
   5  -6  -3    0.50    0.80
  -5  -6   3    2.71    1.89
   5   6  -3    4.62    2.35
   5   6  -3    1.90    0.37
  -5   6   3    2.00    1.08
   5   6  -3    1.52    0.33
   4  -6  -3    0.11    0.05
   4  -6  -3    0.03    0.41
  -4  -6   3   -0.89    0.44
  -4   6   3    0.16    0.08
   4   6  -3    0.12    0.10
   4   6  -3    0.16    0.76
  -4   6   3   -0.64    0.42
   4   6  -3    0.17    0.12
  -3  -6   3   21.77    3.79
  -3  -6   3   16.66    0.95
  -3   6   3   18.38    1.53
   3   6  -3   15.26    0.98
   3   6  -3   18.01    0.92
   3   6  -3   11.90    3.08
  -2  -6   3    6.51    0.48
  -2  -6   3    6.08    0.46
  -2  -6   3    9.71    2.62
   2   6  -3    5.59    2.09
   2   6  -3    5.35    0.40
   2   6  -3    5.32    0.45
  -1  -6   3    3.69    0.33
  -1  -6   3    2.90    1.18
  -1  -6   3    3.73    0.31
   1   6  -3    4.47    0.36
   1   6  -3    4.14    0.29
   1   6  -3    3.85    1.51
   0  -6   3    0.82    0.15
   0  -6   3    0.10    0.40
   0  -6  -3    0.10    0.33
   0  -6   3    1.01    0.15
   0   6   3    0.70    0.15
   0   6  -3    0.55    0.14
   0   6   3    0.60    0.12
   0   6  -3    0.73    0.11
   0   6   3    0.51    0.62
   0   6  -3    0.36    0.82
   1  -6   3    3.56    0.25
  -1  -6  -3    3.02    1.33
  -1   6  -3    3.09    1.07
   1   6   3    3.44    0.30
   1   6   3    5.21    1.61
  -1   6  -3    3.94    0.30
  -1   6  -3    4.36    1.45
   2  -6   3    3.78    0.23
  -2  -6  -3    1.64    1.08
   2   6   3    3.47    0.34
  -2   6  -3    3.63    0.28
  -2   6  -3    2.81    1.02
  -2   6  -3    4.39    1.63
   2   6   3    1.43    0.95
   3  -6   3   20.21    2.74
  -3  -6  -3   14.02    3.60
   3   6   3   17.38    0.99
   3   6   3   20.22    4.37
  -3   6  -3   17.68    0.82
  -3   6  -3   22.94    3.52
  -4  -6  -3    1.70    1.28
   4  -6   3    2.31    0.19
   4  -6   3    2.16    0.23
   4  -6   3    2.21    0.21
   4  -6   3    4.42    1.42
  -4   6  -3    1.98    0.23
   4   6   3    1.48    0.31
   4   6   3    1.74    1.36
  -4   6  -3    1.64    1.15
   5  -6   3   30.37    3.83
  -5  -6  -3   19.36    6.01
   5  -6   3   31.05    1.26
   5  -6   3   30.65    1.20
   5  -6   3   30.63    1.34
  -5   6  -3   29.23    4.59
   5   6   3   19.79    5.74
   5   6   3   30.09    1.60
   6  -6   3    2.25    0.24
  -6  -6  -3    6.10    3.00
   6  -6   3    2.17    0.22
   6  -6   3    4.35    1.77
   6  -6   3    2.46    0.27
  -6   6  -3    3.15    1.86
   6   6   3    4.59    2.78
   6   6   3    1.89    0.39
   6   6   3    1.89    0.42
   7  -6   3   13.91    3.69
   7  -6   3   23.51    1.14
  -7  -6  -3   18.58    5.46
   7  -6   3   22.55    1.01
   7  -6   3   23.10    0.96
  -7   6  -3   19.84    4.70
   7   6   3   19.45    5.29
   7   6   3   22.91    1.48
   7   6   3   22.64    1.47
   8  -6   3   -1.00    1.64
  -8  -6  -3    1.37    2.14
   8  -6   3    0.38    0.16
   8   6   3    2.95    3.00
   8   6   3    0.52    0.25
   8   6   3    0.65    0.25
  -8   6  -3   -0.60    1.74
  -9  -6  -3    4.86    4.02
   9   6   3    1.82    0.39
   9   6   3    2.18    0.49
  -9   6  -3   -4.00    4.09
   9   6   3    2.03    3.01
   9  -7  -3   -0.85    2.05
  -9  -7   3   -2.85    2.74
  -9   7   3   -0.82    1.99
   9   7  -3   -2.32    3.76
   9   7  -3    1.49    0.46
   8  -7  -3    0.25    0.16
  -8  -7   3   -2.15    1.56
   8  -7  -3   -2.46    1.28
   8   7  -3    0.42    0.21
   8   7  -3    2.67    2.95
   8   7  -3   -0.25    0.12
  -8   7   3   -1.31    1.45
   7  -7  -3   22.56    1.00
  -7  -7   3   15.29    4.17
   7  -7  -3   21.43    4.14
  -7   7   3   17.16    3.59
   7   7  -3   21.69    1.40
   7   7  -3   21.12    1.34
   7   7  -3   23.55    6.22
   6  -7  -3    1.63    0.23
   6  -7  -3    0.70    0.88
  -6  -7   3   -0.21    1.58
  -6   7   3    4.21    1.63
   6   7  -3    1.66    0.37
   6   7  -3    1.09    0.30
   6   7  -3    1.90    2.08
   5  -7  -3   46.60    1.61
   5  -7  -3   43.10    3.48
  -5  -7   3   42.58    6.02
   5   7  -3   44.25    2.09
  -5   7   3   47.40    1.99
   5   7  -3   43.85    2.01
   5   7  -3   33.93    5.93
  -5   7   3   42.16    3.75
   4  -7  -3   11.03    1.23
  -4  -7   3   10.33    2.85
   4   7  -3    9.77    2.95
  -4   7   3   11.39    1.47
  -4   7   3   11.47    0.59
   4   7  -3   11.36    0.82
   4   7  -3   11.35    0.76
  -3  -7   3   17.98    1.08
  -3  -7   3   17.40    3.83
   3   7  -3   15.92    0.96
   3   7  -3   16.30    0.90
   3   7  -3   16.81    3.82
  -2  -7   3    1.07    1.02
  -2  -7   3    0.57    0.21
   2   7  -3    0.25    0.09
   2   7  -3    1.43    1.03
   2   7  -3    0.54    0.14
  -1  -7   3    0.27    0.59
  -1  -7   3    0.18    0.11
   1   7  -3   -0.04    0.45
   1   7  -3    0.15    0.08
  -1   7   3    0.28    0.25
  -1   7   3    1.19    0.46
   1   7  -3    0.28    0.10
   0  -7   3    0.17    0.06
   0  -7   3    0.30    0.66
   0  -7  -3   -0.34    0.32
   0  -7   3    0.30    0.10
   0   7  -3    0.20    0.09
   0   7  -3    0.28    0.07
   0   7   3    0.21    0.08
   0   7  -3    0.60    0.61
   0   7   3    0.28    0.56
   1  -7   3    2.04    0.18
  -1  -7  -3    4.11    1.46
  -1   7  -3    2.13    0.87
   1   7   3    2.68    1.29
   1   7   3    1.86    0.24
  -1   7  -3    1.71    0.87
  -1   7  -3    2.34    0.24
  -2  -7  -3    4.10    1.91
   2   7   3    4.37    0.40
  -2   7  -3    5.50    1.57
  -2   7  -3    5.69    1.78
   2   7   3    2.02    1.37
  -2   7  -3    4.29    0.33
   3   7   3    6.29    0.55
  -3   7  -3    6.61    0.43
  -3   7  -3    6.91    2.55
   4  -7   3    1.06    0.79
  -4  -7  -3    1.22    1.07
  -4   7  -3   -0.09    0.97
   4   7   3   -0.78    0.83
   4   7   3    1.33    0.31
  -4   7  -3    2.19    0.25
  -5  -7  -3    4.56    2.08
   5  -7   3    1.14    1.09
   5  -7   3    1.63    0.23
   5   7   3    1.06    1.66
  -5   7  -3    3.04    1.68
   6  -7   3    0.11    0.13
  -6  -7  -3    0.38    1.63
   6  -7   3    1.09    1.41
   6   7   3    0.14    0.14
  -6   7  -3    1.28    1.60
   6   7   3    0.50    0.22
   6   7   3    0.53    1.86
   7  -7   3    8.32    2.65
   7  -7   3   13.11    0.74
  -7  -7  -3   13.75    4.54
   7  -7   3   12.37    0.98
  -7   7  -3    9.93    3.58
   7   7   3   14.03    1.11
   7   7   3   11.72    1.03
  -8  -7  -3    0.88    3.04
   8  -7   3    2.43    0.37
   8  -7   3    2.98    2.27
   8   7   3    2.47    0.58
  -8   7  -3    0.89    2.34
   8   7   3    5.32    3.82
   8   7   3    2.03    0.51
   9  -7   3   33.45    6.85
   9  -7   3   27.30    1.36
  -9  -7  -3   15.00    6.38
   9   7   3   29.33    2.55
  -9   7  -3   22.18    6.34
   9   7   3   27.68    2.07
   9  -8  -3   20.39    4.30
   9  -8  -3   13.79    0.81
  -9  -8   3   10.83    5.57
  -9   8   3    8.36    3.07
   9   8  -3   12.70    1.16
   9   8  -3    6.86    7.97
   9   8  -3   12.91    1.12
  -8  -8   3    5.83    3.65
   8  -8  -3    4.99    0.41
   8  -8  -3    5.10    2.38
   8   8  -3    4.98    0.78
   8   8  -3   -1.39    3.45
   8   8  -3    5.32    0.65
  -8   8   3    3.84    1.92
   7  -8  -3    4.72    0.36
  -7  -8   3    3.27    2.67
   7  -8  -3    5.63    2.06
  -7   8   3    1.87    1.97
   7   8  -3    4.63    0.70
   7   8  -3    5.08    0.58
   7   8  -3    2.46    2.62
  -6  -8   3    8.01    2.97
   6  -8  -3    9.85    2.62
   6   8  -3    4.42    2.61
   6   8  -3    8.23    0.78
   6   8  -3    9.30    0.78
  -5  -8   3    0.93    0.94
   5  -8  -3   -0.09    0.43
  -5   8   3    1.38    0.77
   5   8  -3    1.72    1.51
   5   8  -3    1.04    0.28
   5   8  -3    1.05    0.26
   4   8  -3    7.36    0.59
   4   8  -3    6.40    2.50
   4   8  -3    6.74    0.63
  -3  -8   3    4.65    2.14
   3   8  -3    4.49    1.81
   3   8  -3    5.11    0.47
   3   8  -3    5.26    0.51
  -2  -8   3    0.11    0.09
  -2  -8   3   -0.20    0.62
   2   8  -3   -0.03    0.07
   2   8  -3   -0.56    0.59
   2   8  -3    0.01    0.09
  -1  -8   3    0.02    0.08
  -1  -8   3    0.74    1.00
  -1   8   3   -0.19    0.24
   1   8  -3   -0.58    0.64
  -1   8   3   -0.43    0.30
   1   8  -3    0.18    0.07
   1   8  -3   -0.08    0.04
   0  -8  -3    0.68    0.44
   0  -8   3    0.25    0.10
   0   8   3    0.48    0.12
   0   8   3    0.35    0.38
   0   8  -3    0.32    0.08
   0   8   3    0.37    0.12
   0   8  -3    0.21    0.09
  -1  -8  -3    0.30    0.37
  -1   8  -3    0.06    0.07
  -1   8  -3   -0.21    0.38
   1   8   3    0.18    0.09
  -1   8  -3   -0.56    0.39
   1   8   3    0.22    0.71
  -2  -8  -3   -0.67    0.72
   2   8   3   -0.56    0.66
  -2   8  -3   -0.09    0.58
  -2   8  -3    0.21    0.08
   2   8   3    0.47    0.18
  -2   8  -3    0.92    0.65
  -3  -8  -3    5.23    1.90
  -3   8  -3    4.04    1.38
   3   8   3    6.11    2.28
   3   8   3    3.71    0.43
  -3   8  -3    3.41    1.16
  -3   8  -3    3.86    0.33
  -4  -8  -3    5.80    2.10
   4   8   3    7.07    0.64
   4   8   3    7.00    2.68
  -4   8  -3    6.98    0.50
  -4   8  -3    6.99    2.45
   4   8   3    6.90    0.64
  -5  -8  -3    6.87    2.72
   5  -8   3   14.02    2.88
   5   8   3    9.98    3.41
  -5   8  -3   12.49    3.49
   5   8   3   11.09    0.90
   5   8   3   10.19    0.86
   6  -8   3    1.16    1.18
  -6  -8  -3    1.57    1.90
   6   8   3    0.51    0.25
   6   8   3   -1.14    1.43
  -6   8  -3   -0.56    1.54
   6   8   3    1.19    0.37
   7  -8   3    4.09    0.36
   7  -8   3    2.64    1.76
   7  -8   3    4.68    0.51
  -7  -8  -3    7.06    3.83
   7   8   3    4.75    0.76
  -7   8  -3    5.02    2.51
   7   8   3    3.87    0.65
   7   8   3    3.01    3.28
  -8  -8  -3    1.51    3.41
   8  -8   3    4.30    0.41
   8  -8   3    7.13    3.07
   8   8   3    3.80    0.66
   8   8   3    4.26    0.77
   8   8   3    4.15    3.86
  -8   8  -3    1.90    3.16
  -9  -8  -3   -1.05    4.36
   9  -8   3   -4.98    3.10
   9   8   3    4.46    4.09
   9   8   3    1.03    0.32
   9   8   3    1.39    0.44
  -9   8  -3   -3.66    2.83
  -8  -9   3   25.71    7.29
   8  -9  -3   31.20    3.81
  -8   9   3   29.38    4.27
   8   9  -3   30.72    1.88
   8   9  -3   30.18    1.78
   8   9  -3   27.96    7.35
   7  -9  -3    1.09    0.85
  -7  -9   3    1.64    2.03
  -7   9   3   -0.64    1.05
   7   9  -3    1.16    0.35
   7   9  -3    1.08    0.29
  -6  -9   3    4.56    2.49
  -6   9   3    5.62    1.61
   6   9  -3    6.16    0.68
   6   9  -3    7.91    3.07
   6   9  -3    5.54    0.60
  -5  -9   3    0.06    1.57
   5   9  -3    0.05    0.14
   5   9  -3    1.66    1.87
  -5   9   3    0.20    0.49
   5   9  -3   -0.01    0.11
  -5   9   3    0.48    0.35
  -4  -9   3    0.95    1.27
   4   9  -3    2.19    1.65
   4   9  -3    2.27    0.40
   4   9  -3    3.04    0.37
  -3  -9   3   -0.46    0.92
   3   9  -3    1.23    1.35
   3   9  -3    1.18    0.30
   3   9  -3    0.79    0.20
  -2  -9   3    1.07    0.25
  -2  -9   3    2.82    1.41
   2   9  -3    1.02    0.22
   2   9  -3    0.82    0.22
  -1  -9   3    0.08    0.52
  -1  -9   3    1.11    0.21
   1   9  -3    1.34    0.21
  -1   9   3    1.39    0.63
   1   9  -3    1.29    0.26
  -1   9   3    0.73    0.46
   1   9  -3    2.09    0.92
   0  -9  -3    4.72    1.29
   0  -9   3    2.13    1.05
   0   9  -3    2.02    1.20
   0   9   3    3.79    0.32
   0   9   3    4.62    0.36
   0   9   3    3.95    0.31
   0   9   3    5.53    1.43
   0   9  -3    4.02    0.38
   0   9  -3    4.24    0.27
  -1  -9  -3    0.21    0.59
  -1   9  -3    0.02    0.08
  -1   9  -3   -0.19    0.54
   1   9   3    0.07    0.08
   1   9   3    0.37    0.76
  -1   9  -3    1.74    0.78
   1   9   3    0.04    0.10
  -2  -9  -3    1.95    1.14
   2   9   3    1.79    0.33
   2   9   3    1.34    1.30
  -2   9  -3    0.42    0.56
  -2   9  -3    1.32    1.11
   2   9   3    1.72    0.32
  -2   9  -3    1.72    0.21
  -3  -9  -3    3.31    1.87
  -3   9  -3    5.42    2.09
   3   9   3    4.17    0.47
   3   9   3    3.66    2.10
  -3   9  -3    5.31    0.41
   3   9   3    3.91    0.44
  -3   9  -3    5.48    1.66
  -4  -9  -3   26.52    5.62
   4   9   3   20.12    1.21
  -4   9  -3   20.29    1.00
   4   9   3   20.88    1.26
  -4   9  -3   17.75    3.80
   4   9   3   17.63    4.62
  -4   9  -3   16.92    4.67
  -5  -9  -3    0.15    1.21
  -5   9  -3    0.62    1.45
   5   9   3    0.86    0.25
   5   9   3    0.32    0.22
  -5   9  -3    0.52    0.16
   5   9   3    1.66    1.91
  -6  -9  -3   15.97    4.90
   6  -9   3    9.38    2.45
   6   9   3   11.10    0.97
   6   9   3   10.68    0.93
  -6   9  -3    7.90    2.90
  -7  -9  -3   -2.58    2.30
   7  -9   3    1.76    1.67
   7   9   3    3.03    0.57
   7   9   3    1.67    2.85
   7   9   3    2.32    0.53
  -7   9  -3    3.51    2.25
   8  -9   3    6.20    2.54
  -8  -9  -3   11.77    4.97
   8   9   3    7.97    0.87
  -8   9  -3   10.09    3.91
   8   9   3   10.41    5.17
   8   9   3    7.20    0.85
   8  10  -3   13.19    1.14
   8  10  -3   11.40    1.17
  -8  10   3    8.89    3.34
  -7 -10   3   -2.93    2.18
   7  10  -3    0.88    0.29
  -7  10   3    1.11    0.97
   7  10  -3    0.62    0.23
   7  10  -3    3.70    3.30
  -6 -10   3   17.81    6.02
   6  10  -3   14.80    1.14
   6  10  -3   16.03    1.09
  -5 -10   3   -1.80    0.89
   5  10  -3    0.74    0.24
   5  10  -3    0.80    0.27
   5  10  -3   -0.39    1.66
  -4 -10   3   16.42    3.96
   4  10  -3   16.67    4.26
   4  10  -3   19.50    1.11
   4  10  -3   20.63    1.26
  -3 -10   3    4.66    1.87
   3  10  -3    3.51    1.95
   3  10  -3    4.75    0.44
   3  10  -3    5.53    0.55
  -2 -10   3    3.96    0.40
  -2 -10   3    1.46    1.00
   2  10  -3    4.01    0.36
   2  10  -3    3.98    0.43
   2  10  -3    2.04    1.53
  -1 -10   3    0.18    0.09
  -1 -10   3    0.02    0.60
  -1  10   3    0.62    0.40
   1  10  -3   -0.78    0.88
   1  10  -3    0.29    0.15
   1  10  -3    0.22    0.09
  -1  10   3    0.16    0.08
  -1  10   3    1.21    0.53
   0 -10  -3    8.41    1.74
   0  10   3    8.66    0.54
   0  10   3    8.31    0.47
   0  10   3   11.48    1.88
   0  10  -3    8.22    2.37
   0  10  -3    8.23    0.60
  -1 -10  -3    1.34    0.84
   1  10   3    1.78    0.32
   1  10   3    1.24    1.08
  -1  10  -3    1.81    1.03
   1  10   3    1.98    0.30
   1  10   3    1.57    0.28
  -1  10  -3    3.59    1.36
  -1  10  -3    1.87    0.31
  -2 -10  -3    2.97    1.37
  -2  10  -3    1.89    1.09
  -2  10  -3    2.79    0.30
   2  10   3    2.26    0.36
  -2  10  -3    3.44    1.40
  -3 -10  -3    4.47    2.17
  -3  10  -3    4.40    1.55
   3  10   3    4.45    0.49
   3  10   3    3.51    1.98
  -3  10  -3    1.51    1.21
  -3  10  -3    4.24    0.38
   3  10   3    4.10    0.45
  -4 -10  -3    2.49    1.80
  -4  10  -3    2.12    0.35
  -4  10  -3    1.12    1.24
   4  10   3    2.54    0.46
   4  10   3    1.16    1.73
  -4  10  -3    1.81    1.17
   4  10   3    2.26    0.43
  -5  10  -3    0.95    1.12
  -5  10  -3    0.05    0.10
   5  10   3    0.20    0.20
  -5  10  -3   -0.51    0.69
   5  10   3    0.21    0.13
  -6 -10  -3    1.64    2.25
   6  10   3    4.40    3.08
   6  10   3    3.15    0.55
  -6  10  -3    9.10    2.79
   6  10   3    4.37    0.71
   7  10   3    2.48    0.56
   7  10   3    3.19    0.61
  -7  10  -3    1.61    2.24
   8 -10   3   28.43    4.96
   8  10   3   29.72    1.96
  -8  10  -3   28.37    5.89
   8  10   3   35.46    2.48
   7  11  -3    4.01    0.63
   7  11  -3    3.57    0.67
  -6 -11   3    0.05    1.89
   6  11  -3    1.16    0.36
   6  11  -3    1.62    0.39
   6  11  -3    3.89    2.86
  -5 -11   3    2.64    2.03
   5  11  -3    2.28    0.43
   5  11  -3    1.92    2.22
   5  11  -3    2.48    0.50
  -4 -11   3    1.36    1.98
   4  11  -3    3.67    0.64
   4  11  -3    3.69    0.44
  -3 -11   3    1.22    1.24
   3  11  -3    2.21    0.40
   3  11  -3    1.80    0.33
  -2 -11   3    2.95    1.86
  -2 -11   3    3.11    0.35
   2  11  -3    2.91    0.32
   2  11  -3    3.65    0.44
   2  11  -3    1.14    1.36
  -1 -11   3    1.35    1.11
  -1  11   3    1.49    0.68
  -1  11   3    1.42    0.62
  -1  11   3    1.83    0.21
   1  11  -3    1.64    0.31
   1  11  -3    1.53    0.22
   0 -11  -3    0.46    0.76
   0  11   3    1.97    1.04
   0  11   3    2.20    0.27
   0  11  -3    2.04    0.34
  -1 -11  -3   -0.23    0.64
   1  11   3    0.14    0.88
  -1  11  -3    0.23    0.11
   1  11   3    0.31    0.14
  -1  11  -3    0.04    0.82
   1  11   3    0.08    0.10
  -2 -11  -3    4.57    1.86
   2  11   3    3.23    0.48
  -2  11  -3    3.20    2.14
  -2  11  -3    1.41    1.10
   2  11   3    2.56    0.39
  -3 -11  -3    6.16    2.87
   3  11   3    4.61    0.50
  -3  11  -3    2.52    1.53
  -3  11  -3    4.43    1.75
   3  11   3    3.79    0.44
  -3  11  -3    3.71    0.37
  -4 -11  -3    6.74    2.90
  -4  11  -3    7.74    0.56
   4  11   3    7.45    0.73
  -4  11  -3    4.13    1.53
  -4  11  -3    6.79    1.84
   4  11   3    7.17    0.68
   4  11   3    7.32    3.19
  -5 -11  -3    1.66    2.24
   5  11   3    1.69    1.91
  -5  11  -3    1.84    1.47
   5  11   3    0.80    0.29
   5  11   3    0.42    0.23
  -5  11  -3    1.16    0.26
  -5  11  -3    1.22    1.51
   6  11   3    6.33    0.72
  -6  11  -3    7.48    2.79
   6  11   3    5.61    0.83
   7  11   3   -0.18    0.17
   7  11   3    0.19    0.30
  -7  11  -3   -2.14    2.34
   6  12  -3    0.62    0.25
   6  12  -3    0.13    0.22
   5  12  -3    0.76    0.23
   5  12  -3    1.17    0.35
  -4 -12   3    0.22    1.71
   4  12  -3    0.60    0.27
   4  12  -3    0.22    0.17
  -3 -12   3    1.33    1.49
  -3 -12   3    2.84    0.52
   3  12  -3    2.94    0.42
   3  12  -3    0.55    1.80
   3  12  -3    3.07    0.53
  -2 -12   3    1.38    1.27
   2  12  -3    0.01    0.12
   2  12  -3   -0.02    0.07
   2  12  -3    0.29    1.38
  -1 -12   3    6.06    2.17
  -1  12   3    3.53    0.88
  -1  12   3    2.51    0.28
  -1  12   3    4.12    1.00
   1  12  -3    2.49    0.26
   1  12  -3    2.54    0.41
   0  12   3    1.91    0.30
   0  12  -3    1.15    1.18
   0  12   3    3.10    1.38
   0  12  -3    1.99    0.36
  -1 -12  -3    0.83    1.01
  -1  12  -3    0.77    0.20
   1  12   3    0.21    0.19
  -1  12  -3    0.67    1.14
   1  12   3    1.68    1.47
   1  12   3    0.88    0.18
  -2 -12  -3    1.13    1.22
  -2  12  -3    0.11    1.09
   2  12   3    0.12    0.11
  -2  12  -3    0.29    0.93
  -2  12  -3    0.15    0.09
   2  12   3    0.10    0.12
  -3 -12  -3   -0.08    1.27
   3  12   3    0.23    1.73
  -3  12  -3    0.73    0.18
  -3  12  -3    1.66    1.14
   3  12   3    0.81    0.23
   3  12   3    0.55    0.24
  -3  12  -3   -0.90    1.05
   4  12   3    0.29    0.18
  -4  12  -3    0.28    1.12
  -4  12  -3   -0.13    0.13
   4  12   3    0.71    0.22
  -5  12  -3    8.78    2.94
   5  12   3    9.65    0.87
   5  12   3   12.26    1.00
  -5  12  -3   11.60    0.77
  -6  12  -3    5.55    2.24
   6  13  -3    1.86    0.39
   6  13  -3    1.22    0.44
   5  13  -3   17.95    1.15
   5  13  -3   18.32    1.31
   4  13  -3    3.81    0.44
   4  13  -3    3.30    0.60
   3  13  -3    8.98    0.65
   3  13  -3    9.45    0.81
   2  13  -3    3.76    0.47
   2  13  -3    2.56    0.31
  -1 -13   3    4.30    1.83
  -1  13   3    5.63    0.44
   1  13  -3    0.93    1.74
   1  13  -3    5.82    0.39
   1  13  -3    5.07    0.52
   0  13   3    0.68    0.22
   0  13  -3    0.64    0.20
   0  13  -3    0.30    0.94
   0  13   3    0.45    1.25
   0  13  -3    1.11    1.52
  -1 -13  -3    0.37    1.01
  -1  13  -3   -0.74    1.15
   1  13   3    2.06    0.25
   1  13   3    1.15    0.25
   1  13   3    1.15    1.42
  -1  13  -3   -0.13    1.02
   1  13   3    1.42    0.30
  -1  13  -3    2.11    0.36
   2  13   3    0.19    0.14
  -2  13  -3    1.88    1.47
   2  13   3    0.24    0.17
  -2  13  -3    0.45    0.15
   3  13   3    1.67    0.37
   3  13   3    1.95    0.35
  -3  13  -3    1.04    1.22
  -4  13  -3    1.80    0.30
  -4  13  -3    1.37    1.65
   4  13   3    1.45    0.40
   4  13   3    2.13    0.41
  -5  13  -3    4.22    0.44
   5  13   3    4.84    0.73
   5  13   3    2.68    0.50
  -5  13  -3    2.78    2.22
  -6  13  -3    0.53    2.26
   6  13   3    0.25    0.21
   6  13   3    0.25    0.25
   4  14  -3    1.08    0.27
   4  14  -3    0.99    0.32
   3  14  -3    0.96    0.31
   3  14  -3    0.84    0.22
   2  14  -3    3.35    0.52
   2  14  -3    3.30    0.32
  -2  14   3    2.99    0.32
  -1  14   3    1.35    0.25
   1  14  -3    1.79    0.36
   0  14   3    5.64    0.50
   0  14  -3    5.89    0.56
   0  14   3    3.28    1.25
   0  14  -3    6.22    1.94
   1  14   3    4.30    0.59
  -1  14  -3    4.37    0.48
  -2  14  -3   -1.13    1.43
   2  14   3    0.49    0.15
   2  14   3    0.23    0.19
  -2  14  -3    0.62    0.19
   3  14   3    4.92    0.72
  -3  14  -3    4.34    0.47
   3  14   3    5.37    0.53
  -3  14  -3    0.68    1.85
  -4  14  -3    3.01    2.05
   4  14   3    2.31    0.43
   4  14   3    1.98    0.43
  -4  14  -3    1.39    0.31
   3  15  -3    0.31    0.20
   3  15  -3    0.12    0.14
   2  15  -3   -0.30    0.16
   2  15  -3    0.36    0.16
  -1  15   3    0.74    0.17
   1  15  -3    0.40    0.21
   0  15  -3    1.10    0.33
   0  15  -3    2.82    1.85
  -1  15  -3    0.64    0.27
  -1  15  -3   -0.39    1.57
   1  15   3    1.18    0.36
   2  15   3    0.33    0.18
  -2  15  -3    0.48    1.64
  -2  15  -3    0.20    0.18
   2  15   3    0.35    0.25
   3  15   3   -0.15    0.18
  -3  15  -3    0.29    0.19
  -3  15  -3   -0.61    3.08
   3  15   3    0.56    0.22
  10   0  -4   28.29    1.50
  10   0  -4   33.56    8.70
  10   0  -4   30.02    1.68
 -10   0   4   29.87    6.88
   9   0  -4    0.03    0.11
   9   0  -4    0.73    2.59
  -9   0   4   -0.55    2.16
   9   0  -4    0.30    0.19
   8   0  -4   53.51    7.66
   8   0  -4   53.41    2.32
   8   0  -4   52.56    2.20
  -8   0   4   40.22    6.35
   7   0  -4   -1.90    1.02
  -7   0   4    0.42    1.06
   7   0  -4    0.43    0.15
   6   0  -4  113.51    3.98
   6   0  -4  100.47    9.28
   6   0  -4  115.42    4.07
  -6   0   4  108.24    8.99
   5   0  -4    0.88    1.12
   5   0  -4    0.06    0.07
   5   0  -4    0.17    0.09
  -5   0   4    0.03    0.76
  -4   0   4   18.43    3.00
   4   0  -4   21.58    3.53
   4   0  -4   16.43    0.82
   4   0  -4   16.09    0.85
  -4   0   4   18.35    0.92
  -4   0   4   17.87    0.94
   3   0  -4    0.12    0.06
  -3   0   4    0.01    0.39
   3   0  -4    0.26    0.09
  -3   0   4    0.11    0.06
  -3   0   4    0.10    0.06
   2   0  -4    1.96    0.17
  -2   0   4    2.33    0.20
  -2   0   4    1.65    0.71
  -2   0   4    1.92    0.19
   2   0  -4    1.91    0.18
   1   0  -4    0.07    0.04
  -1   0   4    0.13    0.20
  -1   0   4    0.04    0.04
   1   0  -4    0.07    0.04
   0   0   4  106.82    3.63
   0   0  -4  107.35    3.62
   0   0   4  125.69    5.75
   0   0  -4  130.67    5.83
   0   0   4  101.84    3.66
   2   0   4    2.52    1.17
  -2   0  -4    2.07    1.09
   3   0   4    4.69    1.76
  -3   0  -4    1.04    0.79
   4   0   4   10.72    0.72
   4   0   4   17.54    4.12
  -4   0  -4   13.35    3.90
   5   0   4   -0.71    0.80
   5   0   4    0.02    0.08
  -5   0  -4    0.02    1.11
   6   0   4  103.78    9.44
   6   0   4  105.74    4.02
  -6   0  -4  106.99   10.01
   7   0   4   -0.20    1.42
   7   0   4   -0.19    0.10
  -7   0  -4    1.60    1.88
   8   0   4   54.18    2.48
   8   0   4   43.69    7.42
   8   0   4   53.12    2.50
  -8   0  -4   52.22    8.19
  -9   0  -4   -2.33    2.75
   9   0   4    4.34    2.78
   9   0   4    0.11    0.16
   9   0   4    0.42    0.23
  10   0   4   38.66    8.00
  10   0   4   32.61    1.79
 -10   0  -4   17.27    5.72
  10   0   4   26.61    1.72
  10  -1  -4   17.56    1.03
  10  -1  -4   18.23    1.19
 -10  -1   4   20.23    5.69
  10  -1  -4   10.88    5.32
  10   1  -4   14.06    5.96
  10   1  -4   18.60    1.16
 -10   1   4    9.48    3.75
  10   1  -4   16.44    1.20
   9  -1  -4   71.48    2.78
  -9  -1   4   61.87    8.75
   9  -1  -4   73.72    2.98
   9  -1  -4   62.13    9.38
   9   1  -4   72.76    9.85
   9   1  -4   69.87    3.02
   9   1  -4   69.10    3.29
  -9   1   4   67.73    8.84
   8  -1  -4    9.83    0.76
  -8  -1   4    5.86    3.49
   8  -1  -4    7.41    3.34
   8  -1  -4   10.63    0.71
   8   1  -4   19.75    7.44
   8   1  -4   11.03    0.93
   8   1  -4   11.42    0.81
  -8   1   4    8.21    3.30
   7  -1  -4   30.46    1.47
  -7  -1   4   29.30    6.00
   7  -1  -4   29.93    1.36
   7   1  -4   24.07    5.31
   7   1  -4   31.81    1.50
  -7   1   4   26.78    4.32
   7   1  -4   28.85    1.51
   6  -1  -4   59.07    2.35
  -6  -1   4   54.44    6.18
   6  -1  -4   58.75    2.24
   6   1  -4   57.78    2.40
   6   1  -4   61.07    2.38
   6   1  -4   62.10    7.17
  -6   1   4   54.08    6.03
  -5  -1   4   57.94    6.31
   5  -1  -4   44.69    1.79
   5  -1  -4   47.32    1.89
  -5   1   4   45.22    2.02
   5   1  -4   44.44    1.89
   5   1  -4   54.07    6.65
   5   1  -4   47.43    1.95
  -5   1   4   53.15    5.78
  -4  -1   4  188.23   11.28
   4  -1  -4  184.26   11.15
   4  -1  -4  161.04    5.55
  -4  -1   4  171.88    5.81
   4  -1  -4  166.99    5.65
  -4  -1   4  169.30    5.82
  -4   1   4  162.22    5.91
   4   1  -4  161.08    5.68
  -4   1   4  171.46   10.26
   4   1  -4  186.68   11.77
   4   1  -4  167.93    5.72
  -4   1   4  169.51    5.72
  -3  -1   4  183.48    6.09
  -3  -1   4  202.16   10.68
   3  -1  -4  179.13    5.89
  -3  -1   4  179.43    6.09
   3  -1  -4  176.42    5.97
   3  -1  -4  184.11   10.08
  -3   1   4  179.68    6.03
   3   1  -4  176.70    6.02
   3   1  -4  175.21    6.01
  -3   1   4  178.26    5.99
  -3   1   4  202.15    9.84
   3   1  -4  197.09   10.99
  -2  -1   4  495.29   19.84
   2  -1  -4  532.68   19.41
  -2   1   4  503.43   18.77
   2   1  -4  491.87   20.15
  -1  -1   4  480.69   18.32
   1  -1  -4  511.27   17.60
  -1   1   4  487.11   17.29
   1   1  -4  493.53   18.60
   0  -1   4    0.42    0.08
   0  -1  -4    0.58    0.36
   0  -1   4    0.12    0.05
   0  -1  -4    0.22    0.08
   0   1   4    0.40    0.31
   0   1  -4   -0.11    0.10
   0   1  -4   -0.15    0.16
   0   1  -4    0.25    0.07
   0   1   4    0.13    0.05
  -1  -1  -4  489.12   18.79
   1  -1   4  525.09   18.49
   1   1   4  431.45   15.03
   1   1   4  495.68   18.52
  -1   1  -4  501.18   18.62
  -1   1  -4  413.92   14.99
   2  -1   4  433.17   17.82
   2  -1   4  386.50   13.40
  -2   1  -4  446.66   18.55
   3  -1   4  182.70    5.92
   3  -1   4  163.99    6.01
   3  -1   4  187.10   10.94
  -3  -1  -4  191.61   11.84
  -3   1  -4  170.98   11.10
   3   1   4  195.67   11.57
   4  -1   4  174.83   11.49
   4  -1   4  156.68    5.50
  -4  -1  -4  153.53   11.60
  -4   1  -4  151.46   11.39
   4   1   4  157.91    5.56
   4   1   4  169.00   11.72
   5  -1   4   51.13    6.34
  -5  -1  -4   53.39    6.94
   5  -1   4   47.99    2.13
   5   1   4   47.83    2.15
  -5   1  -4   52.88    6.83
   5   1   4   55.87    6.97
   6  -1   4   60.97    7.01
  -6  -1  -4   49.08    6.67
   6  -1   4   64.30    2.59
   6   1   4   67.29    7.55
   6   1   4   64.27    2.66
  -6   1  -4   51.91    6.86
  -7  -1  -4   21.79    5.51
   7  -1   4   29.54    1.57
   7  -1   4   32.69    5.55
   7   1   4   25.41    5.57
   7   1   4   31.03    1.66
  -7   1  -4   31.14    6.79
  -8  -1  -4    4.83    2.98
   8  -1   4   11.80    3.86
   8  -1   4   10.24    0.85
   8  -1   4   10.07    0.83
   8   1   4    7.70    3.70
   8   1   4    9.09    0.84
  -8   1  -4    9.16    3.87
   8   1   4   11.22    1.10
   9  -1   4   68.23    3.02
   9  -1   4   72.49    9.86
   9  -1   4   73.63    3.15
  -9  -1  -4   51.89    8.98
  -9   1  -4   71.36    9.61
   9   1   4   57.75    9.07
   9   1   4   75.14    3.26
   9   1   4   70.00    3.15
 -10  -1  -4    7.30    3.99
  10  -1   4   14.30    6.35
  10  -1   4   19.42    1.29
  10  -1   4   18.27    1.30
  10   1   4   21.79    7.08
  10   1   4   18.68    1.36
  10   1   4   17.30    1.30
 -10   1  -4   17.02    6.43
 -10  -2   4   40.84    8.41
  10  -2  -4   59.33    2.32
  10  -2  -4   64.25   10.33
  10  -2  -4   59.98    2.59
  10   2  -4   56.93    2.61
  10   2  -4   60.61    2.76
 -10   2   4   57.42    8.65
  10   2  -4   40.33    8.66
   9  -2  -4    3.56    0.52
   9  -2  -4    3.05    0.37
  -9  -2   4    2.35    2.71
   9  -2  -4    0.68    2.63
   9   2  -4    0.25    3.16
  -9   2   4    5.27    3.22
   9   2  -4    2.54    0.45
   9   2  -4    3.63    0.59
   8  -2  -4  129.85    4.48
   8  -2  -4  126.75    4.67
   8  -2  -4  116.68   11.50
  -8  -2   4  125.20   11.72
   8   2  -4  122.89   12.54
  -8   2   4  121.89   10.74
   8   2  -4  133.01    4.87
   8   2  -4  133.38    4.80
  -7  -2   4   30.91    5.00
   7  -2  -4   18.62    4.38
   7  -2  -4   26.73    1.31
   7  -2  -4   26.50    1.18
  -7   2   4   22.49    4.69
   7   2  -4   16.67    4.37
   7   2  -4   27.19    1.40
   7   2  -4   26.42    1.42
   6  -2  -4   97.49    3.36
   6  -2  -4   98.36    3.51
  -6  -2   4   94.75    8.62
   6  -2  -4   94.69    8.48
   6   2  -4   98.26    9.29
   6   2  -4   96.26    3.62
   6   2  -4   96.77    3.65
  -6   2   4   90.72    7.86
   5  -2  -4  388.26   19.73
   5  -2  -4  369.59   12.05
   5  -2  -4  368.37   11.90
   5   2  -4  349.82   12.17
  -5   2   4  377.20   12.19
   5   2  -4  363.55   12.18
  -5   2   4  365.63   12.22
  -5   2   4  424.08   19.25
  -4  -2   4   17.05    3.82
  -4  -2   4   14.83    0.87
   4  -2  -4   14.46    0.72
   4  -2  -4   14.39    0.63
   4  -2  -4   11.76    2.82
  -4  -2   4   14.88    0.87
  -4   2   4   15.50    0.78
  -4   2   4   15.69    0.81
   4   2  -4   14.27    0.81
   4   2  -4   20.01    3.46
  -4   2   4   14.99    2.57
   4   2  -4   13.32    0.79
   3  -2  -4  807.94   29.11
  -3  -2   4  697.24   29.68
  -3   2   4  796.70   28.17
   2  -2  -4  983.75   32.82
  -2  -2   4  931.24   34.47
   2   2  -4  883.14   34.59
  -2   2   4 1000.00   32.20
  -1  -2   4   26.22    2.68
   1  -2  -4   22.09    0.91
  -1  -2   4   24.08    0.97
   1  -2  -4   27.11    1.85
   1   2  -4   23.96    0.93
   1   2  -4   28.34    2.82
  -1   2   4   23.72    0.90
   1   2  -4   22.73    0.95
   0  -2  -4  485.19   17.50
   0   2  -4  449.29   18.03
   0   2   4  520.75   17.40
   1  -2   4   17.54    0.73
   1  -2   4   20.83    2.30
   1  -2   4   18.04    0.73
  -1  -2  -4   19.08    2.43
  -1   2  -4   15.90    0.85
   1   2   4   19.39    2.37
  -1   2  -4   18.76    0.74
   1   2   4   17.65    0.85
  -1   2  -4   20.77    2.42
   2  -2   4  859.52   31.86
  -2  -2  -4  870.68   33.45
  -2   2  -4  823.18   32.42
   2   2   4  932.10   33.46
   3  -2   4  708.92   27.73
  -3  -2  -4  678.24   29.11
   3   2   4  704.81   28.95
  -3   2  -4  637.97   28.11
  -4  -2  -4   14.87    3.67
   4  -2   4   19.46    3.32
   4  -2   4   15.77    0.89
   4  -2   4   17.75    0.84
   4   2   4   15.25    3.86
   4   2   4   15.38    0.94
  -4   2  -4   14.54    3.49
   5  -2   4  346.83   12.17
   5  -2   4  371.62   12.03
   5  -2   4  391.36   20.53
  -5  -2  -4  409.14   22.37
   5   2   4  389.88   21.41
  -5   2  -4  387.04   21.60
   5   2   4  345.58   12.30
  -6  -2  -4   69.36    8.15
   6  -2   4   94.30    3.47
   6  -2   4  101.77    9.03
   6   2   4   93.97    3.63
  -6   2  -4   84.70    8.79
   6   2   4   86.95    8.77
   7  -2   4   29.57    1.51
   7  -2   4   27.18    1.50
   7  -2   4   22.66    5.24
  -7  -2  -4   29.15    6.61
   7   2   4   30.52    1.67
   7   2   4   31.94    6.62
  -7   2  -4   27.15    6.22
   8  -2   4  129.81    4.79
  -8  -2  -4  120.99   13.04
   8  -2   4  128.62    4.72
   8  -2   4  105.32   11.10
   8   2   4  130.17    4.98
   8   2   4  113.49   11.81
   8   2   4  125.91    4.92
  -8   2  -4  122.46   12.45
   9  -2   4    1.26    0.32
  -9  -2  -4    1.48    2.34
   9   2   4    1.39    0.45
   9   2   4   -1.49    2.68
   9   2   4    1.73    0.44
  10  -2   4   46.67    9.36
  10  -2   4   65.80    2.81
  10  -2   4   63.34    2.88
  10   2   4   60.69    2.99
  10   2   4   61.76    3.03
 -10   2  -4   55.18   11.08
  10  -3  -4    2.80    4.04
  10  -3  -4    0.26    0.18
  10  -3  -4    0.18    0.16
 -10  -3   4   -3.51    2.51
  10   3  -4   -0.03    0.21
  10   3  -4    0.77    0.25
  10   3  -4    6.85    5.15
 -10   3   4    1.56    2.74
   9  -3  -4   12.90    0.90
   9  -3  -4   13.10    4.79
  -9  -3   4    5.13    3.19
   9  -3  -4   15.41    0.79
   9   3  -4   11.94    4.97
  -9   3   4   17.54    4.46
   9   3  -4   12.55    1.02
   9   3  -4   13.82    1.03
   8  -3  -4   26.14    6.10
   8  -3  -4   27.50    1.18
   8  -3  -4   27.92    1.38
  -8  -3   4   21.51    5.02
   8   3  -4   27.14    1.54
   8   3  -4   25.60    6.19
  -8   3   4   29.14    4.90
   7  -3  -4  119.60    3.97
   7  -3  -4  101.42    9.67
   7  -3  -4  120.76    4.21
  -7  -3   4  122.60   10.91
   7  -3  -4  119.15    3.95
   7   3  -4  107.37   10.72
   7   3  -4  116.39    4.43
   7   3  -4  119.69    4.43
  -7   3   4  112.00    9.32
   6  -3  -4   19.38    0.97
   6  -3  -4   22.99    3.87
  -6  -3   4   16.44    4.15
   6  -3  -4   20.03    0.82
  -6   3   4   14.80    3.32
   6   3  -4   18.17    1.10
   6   3  -4   14.38    4.10
   6   3  -4   18.54    1.10
   5  -3  -4   66.22    6.25
   5  -3  -4   72.41    2.58
  -5  -3   4   58.55    6.35
   5   3  -4   74.23    7.45
   5   3  -4   73.42    2.79
  -5   3   4   72.24    2.70
  -5   3   4   68.87    5.82
   5   3  -4   70.99    2.77
  -4  -3   4  155.93   10.70
   4  -3  -4  133.13    4.70
   4  -3  -4  155.47    9.51
  -4   3   4  171.28    9.09
   4   3  -4  155.96   11.19
   4   3  -4  131.99    4.87
   4   3  -4  133.02    4.90
  -4   3   4  134.10    4.80
  -4   3   4  139.33    4.76
  -3  -3   4    0.30    0.11
   3  -3  -4    0.57    0.11
   3  -3  -4    0.97    0.57
  -3  -3   4    0.63    0.16
  -3  -3   4    0.90    0.75
   3   3  -4    0.64    0.75
   3   3  -4    0.41    0.13
  -3   3   4    0.59    0.12
   3   3  -4    0.77    0.18
  -3   3   4    1.34    0.58
  -3   3   4    0.48    0.13
  -2  -3   4   32.85    3.67
  -2  -3   4   32.22    1.30
   2  -3  -4   31.82    3.04
  -2  -3   4   31.96    1.32
   2  -3  -4   31.24    1.15
   2   3  -4   30.18    3.64
  -2   3   4   32.63    2.87
  -2   3   4   32.51    1.17
   2   3  -4   31.06    1.30
   2   3  -4   30.91    1.26
  -1  -3   4  503.89   19.79
   1  -3  -4  514.15   16.70
   1   3  -4  487.46   19.87
   0  -3  -4    0.11    0.07
   0  -3   4    0.00    0.30
   0  -3   4    0.08    0.04
   0  -3  -4   -0.03    0.23
   0   3  -4    0.19    0.32
   0   3   4    0.26    0.33
   0   3   4    0.19    0.06
   0   3  -4    0.03    0.04
   1  -3   4  543.86   19.79
  -1  -3  -4  498.34   20.25
   1   3   4  507.25   20.08
  -1   3  -4  532.76   20.05
   1   3   4  472.78   16.25
  -2  -3  -4   35.30    4.12
   2  -3   4   32.25    1.25
   2  -3   4   32.14    1.22
  -2   3  -4   34.83    3.79
   2   3   4   33.03    3.95
  -2   3  -4   31.45    1.24
   3  -3   4    0.33    0.09
  -3  -3  -4    0.08    0.73
   3  -3   4    0.30    0.51
   3  -3   4    0.04    0.05
   3  -3   4    0.13    0.08
   3   3   4    0.49    0.50
   3   3   4    0.23    0.09
  -3   3  -4   -0.10    0.42
  -4  -3  -4  134.98   10.83
   4  -3   4  128.95    4.64
   4  -3   4  141.74    9.73
   4  -3   4  133.50    4.50
   4   3   4  130.40    4.80
   4   3   4  151.58   11.30
  -4   3  -4  132.49   10.42
   5  -3   4   62.73    2.45
   5  -3   4   56.14    5.96
   5  -3   4   66.39    2.33
  -5  -3  -4   46.06    6.14
  -5   3  -4   58.69    6.69
   5   3   4   64.46    2.65
   5   3   4   68.44    7.20
   6  -3   4   15.84    0.96
  -6  -3  -4   14.60    4.49
   6  -3   4   13.36    3.46
   6   3   4   16.94    1.12
  -6   3  -4   22.72    5.43
   6   3   4   20.33    5.04
  -7  -3  -4  102.78   10.98
   7  -3   4  108.53    4.15
   7  -3   4  105.26    9.99
   7  -3   4  111.94    4.12
   7   3   4  107.74   10.90
   7   3   4  114.99    4.41
  -7   3  -4  113.77   11.05
   7   3   4  109.64    4.42
   8  -3   4   34.72    7.12
  -8  -3  -4   22.34    5.86
   8  -3   4   27.26    1.46
   8  -3   4   27.19    1.51
   8   3   4   29.48    1.74
  -8   3  -4   17.74    4.84
   8   3   4   32.19    6.92
   8   3   4   29.72    1.73
  -9  -3  -4   11.29    4.64
   9  -3   4   15.97    1.04
   9  -3   4   15.55    1.09
   9  -3   4   13.77    4.96
   9   3   4   14.70    1.23
   9   3   4   14.60    5.09
  -9   3  -4   15.10    5.29
   9   3   4   13.90    1.16
 -10  -3  -4    5.70    4.33
  10  -3   4   -4.08    3.84
  10   3   4    6.83    5.40
 -10   3  -4    5.10    4.85
  10  -4  -4   27.12   12.29
 -10  -4   4   19.80    7.55
  10  -4  -4   22.10    1.31
  10   4  -4   27.67    1.66
  10   4  -4   22.10    9.72
 -10   4   4   23.97    5.48
  10   4  -4   24.28    1.53
   9  -4  -4   80.25    3.27
  -9  -4   4   79.89    9.89
   9  -4  -4   81.68    9.90
   9   4  -4   86.98    3.55
   9   4  -4   83.59    3.55
   9   4  -4   68.39   10.54
  -9   4   4   86.18    9.32
   8  -4  -4   43.90    1.89
  -8  -4   4   55.38    7.44
   8  -4  -4   38.29    6.43
   8   4  -4   43.24    2.15
   8   4  -4   45.56    9.04
   8   4  -4   43.04    2.14
  -8   4   4   40.33    5.84
   7  -4  -4    5.28    0.45
  -7  -4   4    5.44    2.53
   7  -4  -4    4.82    2.44
   7   4  -4    3.74    2.70
   7   4  -4    4.67    0.54
  -7   4   4    4.80    1.83
   7   4  -4    5.01    0.56
   6  -4  -4   34.95    4.62
  -6  -4   4   32.81    4.94
   6  -4  -4   29.08    1.35
   6   4  -4   30.60    1.56
   6   4  -4   29.83    1.54
   6   4  -4   30.63    6.35
  -6   4   4   26.74    3.85
   5  -4  -4   47.10    4.96
  -5  -4   4   43.12    5.33
   5  -4  -4   50.13    1.87
   5   4  -4   50.35    6.09
   5   4  -4   51.73    2.12
  -5   4   4   51.88    2.00
   5   4  -4   48.56    2.12
  -5   4   4   41.54    4.29
  -4  -4   4    0.36    0.87
   4  -4  -4    1.46    1.04
   4  -4  -4    1.39    0.20
   4   4  -4    1.44    1.47
  -4   4   4    1.31    0.21
  -4   4   4    1.88    1.06
  -4   4   4    1.46    0.25
   4   4  -4    1.79    0.30
  -3  -4   4   74.93    2.90
  -3  -4   4   85.06    7.12
   3  -4  -4   85.71    5.21
   3  -4  -4   76.24    2.63
  -3  -4   4   77.80    2.93
   3   4  -4   74.98    2.88
  -3   4   4   77.80    2.60
  -3   4   4   88.41    4.70
  -3   4   4   75.17    2.69
   3   4  -4   86.68    7.53
   3   4  -4   73.71    2.82
  -2  -4   4  145.13    5.16
   2  -4  -4  149.00    4.93
  -2  -4   4  164.92    9.55
  -2  -4   4  147.16    5.12
   2  -4  -4  162.73    5.98
   2   4  -4  146.94    5.07
   2   4  -4  145.28    5.14
  -2   4   4  147.74    4.93
  -2   4   4  167.25    5.58
   2   4  -4  162.96    9.81
  -1  -4   4   75.42    2.71
  -1  -4   4   77.57    2.66
  -1  -4   4   85.48    5.85
  -1   4   4   73.14    2.55
   1   4  -4   77.18    2.71
   1   4  -4   83.05    5.89
   1   4  -4   74.89    2.62
   0  -4  -4  688.21   23.85
   0  -4   4  686.87   25.38
   0   4   4  686.29   23.69
   0   4   4  636.32   21.33
   0   4  -4  688.85   25.39
  -1  -4  -4   77.77    5.55
   1  -4   4   70.64    2.37
   1  -4   4   70.77    2.45
  -1   4  -4   81.52    5.26
  -1   4  -4   62.83    2.53
  -1   4  -4   77.84    5.38
   1   4   4   75.19    5.39
  -1   4  -4   69.14    2.46
  -2  -4  -4  152.80    9.68
   2  -4   4  139.57    4.71
   2  -4   4  143.48    4.75
   2   4   4  135.09    4.90
  -2   4  -4  158.05    9.11
  -2   4  -4  141.07    4.78
   2   4   4  165.25    9.88
   3  -4   4   65.57    2.43
  -3  -4  -4   73.19    7.17
   3  -4   4   68.91    2.38
   3  -4   4   63.70    2.47
   3   4   4   78.74    7.20
   3   4   4   66.19    2.63
  -3   4  -4   78.28    6.77
  -3   4  -4   68.40    2.43
   4  -4   4    2.50    0.23
  -4  -4  -4    3.51    1.66
   4  -4   4    2.95    0.31
   4  -4   4    2.16    0.27
  -4   4  -4    2.00    1.35
   4   4   4    3.77    1.84
   4   4   4    1.89    0.37
   5  -4   4   48.70    1.97
   5  -4   4   51.66    1.86
  -5  -4  -4   46.16    6.20
   5   4   4   48.94    2.20
  -5   4  -4   38.70    5.45
   5   4   4   42.05    5.78
   6  -4   4   31.07    1.29
  -6  -4  -4   22.36    5.12
   6   4   4   33.83    6.80
  -6   4  -4   27.78    6.03
   6   4   4   26.91    1.58
   7  -4   4    2.35    0.41
   7  -4   4    2.91    0.44
  -7  -4  -4    6.29    3.24
   7   4   4    2.76    0.52
   7   4   4    2.88    0.55
   7   4   4    3.23    2.31
   8  -4   4   46.55    2.03
  -8  -4  -4   49.12    7.78
   8  -4   4   46.53    2.10
   8   4   4   44.91    2.38
   8   4   4   45.74    2.38
   8   4   4   44.33    7.43
  -8   4  -4   41.70    7.15
   9  -4   4   78.19    3.14
   9  -4   4   75.29    3.30
   9  -4   4   67.71    9.20
  -9  -4  -4   78.54   10.37
  -9   4  -4   75.57   10.57
   9   4   4   82.59    3.66
   9   4   4   90.87   11.43
   9   4   4   84.57    3.66
 -10  -4  -4   18.09    6.09
  10  -4   4   24.09    1.45
  10  -4   4   23.98    1.45
  10   4   4   28.41    1.80
  10   4   4   14.71    6.70
  10   4   4   23.35    1.81
 -10  -5   4    4.89    4.03
  10  -5  -4   13.35    0.91
  10   5  -4   12.58    6.73
  10   5  -4   12.47    1.28
  10   5  -4   14.18    1.12
   9  -5  -4   24.10    1.25
  -9  -5   4   13.96    5.25
   9  -5  -4   18.39    5.68
   9   5  -4   23.00    1.47
   9   5  -4   14.40    5.52
  -9   5   4   23.24    4.99
   9   5  -4   23.80    1.49
   8  -5  -4   25.33    1.26
  -8  -5   4   29.51    7.05
   8  -5  -4   30.64    6.33
   8   5  -4   26.39    1.56
   8   5  -4   24.32    1.51
  -8   5   4   22.60    4.59
   8   5  -4   24.96    6.26
   7  -5  -4   54.00    6.50
  -7  -5   4   52.05    7.11
   7  -5  -4   50.68    2.04
  -7   5   4   48.56    5.64
   7   5  -4   40.51    6.55
   7   5  -4   55.15    2.45
   7   5  -4   51.84    2.79
  -6  -5   4  102.48    9.50
   6  -5  -4   98.49    8.07
   6  -5  -4  111.39    3.78
   6   5  -4  107.27    4.11
   6   5  -4   99.97   10.02
  -6   5   4  114.51    8.02
   6   5  -4  113.28    4.19
  -5  -5   4    6.38    2.30
   5  -5  -4    4.92    0.35
   5  -5  -4    3.91    1.43
   5   5  -4    5.53    0.52
  -5   5   4    2.74    1.27
   5   5  -4    4.66    0.49
  -5   5   4    5.47    0.45
   5   5  -4    2.22    1.74
   4  -5  -4  621.68   24.15
   4  -5  -4  674.74   20.67
  -4  -5   4  634.98   27.84
  -4   5   4  682.74   20.81
   4   5  -4  607.34   28.28
  -4   5   4  659.21   23.73
   4   5  -4  658.29   21.07
  -4   5   4  676.79   20.74
   4   5  -4  669.49   21.01
  -3  -5   4    0.83    1.06
   3  -5  -4    0.59    0.43
   3  -5  -4    0.47    0.09
  -3  -5   4    0.18    0.09
   3   5  -4   -0.32    0.82
   3   5  -4    0.60    0.18
   3   5  -4    0.37    0.13
  -3   5   4    0.27    0.39
  -2  -5   4  312.33   15.03
  -2  -5   4  292.13    9.50
   2  -5  -4  272.49    9.37
  -2  -5   4  311.28    9.68
  -2   5   4  286.98    9.24
   2   5  -4  282.68    9.42
   2   5  -4  289.01    9.53
   2   5  -4  292.93   15.13
  -1  -5   4  369.36   15.93
  -1  -5   4  344.57   10.99
  -1  -5   4  345.04   11.06
   1   5  -4  327.98   11.04
   1   5  -4  355.15   16.03
   1   5  -4  326.49   10.93
  -1   5   4  341.56   10.85
   0  -5   4   -0.11    0.33
   0  -5   4    0.21    0.07
   0  -5  -4    0.72    0.52
   0  -5   4    0.39    0.12
   0   5   4    0.29    0.10
   0   5  -4    0.42    0.12
   0   5   4   -0.05    0.29
   0   5  -4    0.07    0.30
   1  -5   4  340.45   10.68
  -1  -5  -4  350.49   15.30
   1  -5   4  329.81   10.78
  -1   5  -4  323.86   10.80
  -1   5  -4  290.50   10.83
   1   5   4  351.38   15.33
  -1   5  -4  361.44   15.24
  -1   5  -4  376.12   15.04
   2  -5   4  311.62   13.46
  -2  -5  -4  302.71   15.26
   2  -5   4  275.74    9.03
   2  -5   4  278.77    9.12
  -2   5  -4  270.92    9.16
   2   5   4  318.42   15.43
   2   5   4  262.75    9.30
  -2   5  -4  284.37   14.00
   3  -5   4    0.63    0.13
  -3  -5  -4   -0.01    0.75
   3  -5   4    0.34    0.11
   3  -5   4    0.48    0.62
   3  -5   4    0.26    0.08
   3   5   4    0.14    0.12
   3   5   4    0.02    0.88
  -3   5  -4    0.78    0.15
  -3   5  -4    0.04    0.42
  -4  -5  -4  555.77   27.20
   4  -5   4  601.13   24.69
   4  -5   4  660.89   19.45
   4  -5   4  621.69   19.56
   4  -5   4  635.89   19.57
   4   5   4  596.48   27.41
   4   5   4  649.13   19.93
  -4   5  -4  570.03   26.31
   5  -5   4    3.21    0.29
  -5  -5  -4    6.82    2.37
   5  -5   4    3.11    1.40
   5  -5   4    4.09    0.37
   5  -5   4    4.14    0.40
  -5   5  -4    3.45    2.01
   5   5   4    3.90    0.48
   5   5   4    3.89    2.07
   6  -5   4  109.43    8.98
   6  -5   4  114.06    3.74
   6  -5   4  111.69    3.86
   6  -5   4  107.86    3.89
  -6   5  -4   92.20    9.33
   6   5   4   84.33   14.39
   6   5   4  105.86    4.26
   7  -5   4   54.58    2.19
   7  -5   4   59.13    6.91
   7  -5   4   53.87    2.25
   7  -5   4   53.05    2.10
  -7  -5  -4   52.26    7.83
  -7   5  -4   51.56    7.34
   7   5   4   52.11    7.56
  -8  -5  -4   22.21    5.88
   8  -5   4   24.70    1.32
   8  -5   4   22.57    1.22
   8  -5   4   25.41    5.81
  -8   5  -4   25.16    5.93
   8   5   4   25.62    1.65
   8   5   4   28.36    1.72
   8   5   4   32.31    7.24
   9  -5   4   28.85    6.95
   9  -5   4   20.14    1.21
  -9  -5  -4   24.79    6.98
   9  -5   4   19.33    1.09
   9   5   4   19.39    1.45
  -9   5  -4   11.11    4.23
   9   5   4   21.44    1.51
   9   5   4   24.42    6.68
  10  -5   4   12.13    0.83
  10  -5   4   11.00    0.90
 -10  -5  -4   10.02    5.88
  10   5   4   13.06    1.17
  10   5   4    7.26    5.48
  10   5   4   11.21    1.10
   9  -6  -4    4.70    0.46
  -9  -6   4    5.42    3.45
   9  -6  -4    4.09    3.00
  -9   6   4    2.14    2.32
   9   6  -4    7.99    5.77
   9   6  -4    4.43    0.70
   9   6  -4    3.62    0.62
  -8  -6   4   44.38    6.94
   8  -6  -4   42.91    5.89
   8  -6  -4   40.24    1.73
   8   6  -4   31.60    6.65
   8   6  -4   40.56    2.13
  -8   6   4   38.58    5.21
   8   6  -4   42.98    2.14
  -7  -6   4   59.74   10.50
   7  -6  -4   66.51    6.69
   7  -6  -4   65.61    2.47
   7   6  -4   67.29    2.89
  -7   6   4   65.65    6.20
   7   6  -4   65.76    2.92
  -6  -6   4  115.26   10.46
   6  -6  -4  115.44    8.08
   6  -6  -4  120.48    4.06
  -6   6   4  129.93    8.20
   6   6  -4  120.84    4.49
   6   6  -4  117.44    4.53
   6   6  -4  103.81   10.60
   5  -6  -4  168.04    8.93
  -5  -6   4  144.08   11.27
   5  -6  -4  176.16    5.55
   5   6  -4  169.78    6.04
  -5   6   4  170.10    8.81
   5   6  -4  153.06   12.22
   5   6  -4  182.28    6.01
   4  -6  -4    9.35    1.31
   4  -6  -4   10.48    0.50
  -4  -6   4    8.96    2.58
   4   6  -4    9.86    3.13
   4   6  -4   10.29    0.71
   4   6  -4   11.12    0.77
  -4   6   4    9.82    1.38
  -4   6   4   10.27    0.54
  -3  -6   4  223.15    7.65
  -3  -6   4  256.83   14.36
   3  -6  -4  222.25    7.20
   3   6  -4  218.05    7.59
   3   6  -4  213.82    7.48
   3   6  -4  246.70   14.68
  -3   6   4  221.67    7.24
  -2  -6   4  188.52    6.58
  -2  -6   4  209.76   11.99
   2   6  -4  192.92    6.47
  -2   6   4  193.06    6.25
   2   6  -4  194.38    6.60
   2   6  -4  208.89   12.38
  -1  -6   4    1.34    0.98
  -1  -6   4    0.90    0.17
  -1  -6   4    1.04    0.21
   1   6  -4    0.73    0.14
   1   6  -4    0.15    0.67
   1   6  -4    0.95    0.20
  -1   6   4    0.78    0.12
   0  -6   4  311.13   10.03
   0  -6   4  304.89    9.93
   0  -6  -4  336.93   12.65
   0  -6   4  314.02   14.55
   0   6  -4  296.99   10.05
   0   6  -4  349.58   15.05
   0   6   4  290.15   10.01
   0   6  -4  291.81    9.89
   0   6   4  325.08   12.98
   1  -6   4    0.43    0.12
  -1  -6  -4    2.37    1.03
   1  -6   4    0.69    0.10
   1   6   4    0.66    0.16
  -1   6  -4    0.48    0.12
  -1   6  -4    0.65    0.16
   1   6   4    0.23    0.69
  -1   6  -4    0.02    0.49
  -1   6  -4    1.40    0.84
  -2  -6  -4  213.11   12.52
   2  -6   4  204.33    6.80
   2   6   4  226.28   12.80
   2   6   4  193.04    7.01
  -2   6  -4  237.86   11.24
  -2   6  -4  231.95   12.03
  -2   6  -4  193.44    6.87
   3  -6   4  221.73    7.23
   3  -6   4  202.48    7.28
   3  -6   4  213.87    7.17
   3  -6   4  266.51   12.33
  -3  -6  -4  243.71   14.67
   3   6   4  217.39    7.59
   3   6   4  232.17   14.39
  -3   6  -4  214.65    7.34
  -3   6  -4  245.08   13.64
  -4  -6  -4    9.27    2.82
   4  -6   4    8.99    0.48
   4  -6   4    9.47    0.54
   4  -6   4    7.72    1.97
   4  -6   4    8.56    0.50
   4   6   4    8.34    0.69
   4   6   4    9.90    3.09
  -4   6  -4    9.08    0.57
  -4   6  -4    8.46    2.73
  -5  -6  -4  168.17   13.04
   5  -6   4  182.03    5.69
   5  -6   4  175.72    5.87
   5  -6   4  180.61    5.79
   5  -6   4  162.05   10.37
   5   6   4  162.84   12.67
   5   6   4  181.71    6.31
  -5   6  -4  148.88   11.61
   6  -6   4  107.32    3.94
   6  -6   4  107.57    3.74
  -6  -6  -4  104.53   10.53
   6  -6   4  103.45    8.51
   6  -6   4  109.85    3.65
   6  -6   4  107.81    3.81
   6   6   4  101.95   10.41
  -6   6  -4  100.95    9.78
   6   6   4  114.19    4.33
   6   6   4  101.75    4.27
   7  -6   4   59.54    2.28
   7  -6   4   61.75    2.40
  -7  -6  -4   50.05    8.03
   7  -6   4   62.37    6.88
   7   6   4   63.03    2.89
   7   6   4   54.14    8.08
  -7   6  -4   52.05    7.42
   7   6   4   63.04    2.90
   8  -6   4   39.05    1.83
  -8  -6  -4   25.95    6.80
   8  -6   4   36.77    1.72
   8  -6   4   36.24    6.98
   8   6   4   39.03    2.18
  -8   6  -4   45.48    7.18
   8   6   4   39.31    2.18
   8   6   4   32.28    7.14
   9  -6   4    6.07    3.46
   9  -6   4    4.41    0.43
   9  -6   4    5.34    0.55
  -9  -6  -4    8.87    4.91
   9   6   4   -1.25    3.20
   9   6   4    5.58    0.88
   9   6   4    3.93    0.70
   9  -7  -4   -1.59    2.16
  -9  -7   4    2.28    3.13
   9  -7  -4    2.16    0.36
   9   7  -4    2.49    3.45
   9   7  -4    1.89    0.55
  -9   7   4    0.97    1.74
   8  -7  -4   29.02    1.29
   8  -7  -4   27.30    4.43
  -8  -7   4   27.57    6.41
   8   7  -4   19.91    6.01
  -8   7   4   23.80    4.14
   8   7  -4   27.34    1.68
   8   7  -4   29.80    1.69
  -7  -7   4   11.93    3.56
   7  -7  -4   17.63    3.43
   7  -7  -4   17.72    0.87
   7   7  -4   16.32    1.14
   7   7  -4   16.96    1.20
  -7   7   4   19.87    3.07
   7   7  -4    8.55    3.71
  -6  -7   4    1.23    1.79
   6  -7  -4    0.58    0.14
   6  -7  -4    0.36    0.80
   6   7  -4    0.16    1.92
   6   7  -4    0.35    0.19
  -6   7   4    0.81    0.75
   6   7  -4    0.25    0.15
  -5  -7   4    1.16    0.94
   5  -7  -4    0.13    0.50
   5  -7  -4    0.30    0.09
   5   7  -4    0.17    0.10
   5   7  -4    3.35    2.87
  -5   7   4   -0.25    0.57
  -5   7   4    0.11    0.12
   4  -7  -4   54.20    2.75
  -4  -7   4   60.41    6.51
   4   7  -4   58.76    2.48
   4   7  -4   56.02    6.45
  -4   7   4   61.67    3.02
   4   7  -4   60.86    2.40
  -3  -7   4    1.07    0.84
   3   7  -4   -0.58    0.70
   3   7  -4    1.50    0.28
   3   7  -4    1.24    0.28
  -2  -7   4  120.82    4.19
  -2  -7   4  124.65    9.06
  -2  -7   4  114.88    4.15
   2   7  -4  120.89    9.37
   2   7  -4  115.68    4.04
   2   7  -4  114.23    4.18
  -1  -7   4    1.08    0.23
  -1  -7   4    0.02    0.06
   1   7  -4    0.22    0.08
   1   7  -4   -0.59    0.59
   0  -7  -4    0.99    0.50
   0  -7   4    0.58    0.12
   0  -7   4    0.23    0.48
   0   7  -4    0.63    0.16
   0   7  -4   -0.10    0.63
   0   7   4    0.41    0.12
   0   7  -4    0.43    0.10
   0   7   4    0.54    0.11
   0   7   4    0.48    0.49
   1  -7   4    0.05    0.06
  -1  -7  -4   -0.27    0.52
   1   7   4    0.55    0.71
  -1   7  -4    0.10    0.06
  -1   7  -4   -0.94    0.48
  -1   7  -4    0.41    0.66
   1   7   4    0.09    0.09
   2  -7   4  108.95    3.75
  -2  -7  -4  124.28    9.08
  -2   7  -4  124.72    8.42
   2   7   4  105.91    4.01
  -2   7  -4  110.23    3.87
   2   7   4  116.60    8.89
  -2   7  -4  119.21    7.51
  -3  -7  -4    0.64    0.93
   3   7   4    1.21    0.93
   3   7   4    1.26    0.27
  -3   7  -4    3.24    1.62
  -3   7  -4    1.09    0.20
   4  -7   4   56.66    4.96
  -4  -7  -4   67.93    7.27
   4   7   4   60.54    6.95
   4   7   4   60.38    2.61
  -4   7  -4   54.36    5.99
  -4   7  -4   67.04    2.37
   5  -7   4    0.13    0.66
  -5  -7  -4    0.09    1.55
   5  -7   4    0.57    0.14
   5   7   4    4.16    2.29
  -5   7  -4    1.11    1.22
   6  -7   4    0.42    0.15
  -6  -7  -4   -1.00    1.70
   6  -7   4   -1.35    2.02
   6   7   4    1.69    2.23
   6   7   4    1.04    0.32
   6   7   4    0.42    0.21
   7  -7   4   17.06    0.91
  -7  -7  -4   11.46    4.27
   7  -7   4   13.73    3.21
   7   7   4   19.17    1.33
  -7   7  -4   13.79    4.36
   7   7   4   10.58    3.81
   7   7   4   17.76    1.28
   8  -7   4   17.43    4.35
   8  -7   4   23.37    1.18
  -8  -7  -4   23.51    6.05
   8   7   4   13.59    6.04
  -8   7  -4   14.46    4.55
   8   7   4   25.46    1.64
   8   7   4   23.26    1.59
  -9  -7  -4    2.81    4.00
   9  -7   4    3.93    3.13
   9  -7   4    2.09    0.38
  -9   7  -4   -2.69    2.61
   9   7   4    2.25    0.88
  -9  -8   4    6.74    7.93
   9  -8  -4    0.34    0.18
   9  -8  -4   -2.66    2.25
  -9   8   4   -0.95    1.85
   9   8  -4    0.49    0.23
   9   8  -4    0.39    0.27
  -8  -8   4   43.61    7.63
   8  -8  -4   31.49    4.41
   8  -8  -4   40.48    1.59
  -8   8   4   35.39    4.50
   8   8  -4   40.87    2.11
   8   8  -4   40.89    8.97
   8   8  -4   36.15    2.08
   7  -8  -4   52.19    4.64
  -7  -8   4   44.23    7.08
   7  -8  -4   51.24    1.91
   7   8  -4   53.03    2.44
   7   8  -4   43.56    7.52
  -7   8   4   51.41    4.82
   7   8  -4   50.68    2.50
   6  -8  -4   47.34    1.65
   6  -8  -4   41.28    3.43
  -6  -8   4   34.40    5.72
   6   8  -4   41.82    6.85
   6   8  -4   43.70    2.11
   6   8  -4   43.33    2.19
  -6   8   4   48.30    3.85
  -5  -8   4  219.37   14.91
   5   8  -4  198.63   15.06
  -5   8   4  215.98    7.34
   5   8  -4  229.04    7.63
   5   8  -4  213.97    7.72
  -5   8   4  233.27    8.94
  -4  -8   4   -2.10    0.98
   4   8  -4    0.15    1.31
   4   8  -4    0.53    0.20
   4   8  -4    0.43    0.16
  -3  -8   4  296.98   16.20
   3   8  -4  295.21   16.82
   3   8  -4  309.19   10.23
   3   8  -4  316.31   10.08
  -2  -8   4   15.49    3.32
  -2  -8   4   20.24    1.03
   2   8  -4   18.57    0.91
   2   8  -4   13.68    3.16
   2   8  -4   19.00    1.04
  -1  -8   4  122.68   12.19
  -1  -8   4  144.52    4.93
   1   8  -4  147.00    4.80
   1   8  -4  148.26    5.01
   0  -8  -4  204.52    9.31
   0  -8   4  208.91    6.62
   0  -8   4  182.87   12.03
   0  -8   4  205.86    6.66
   0   8   4  192.11    9.85
   0   8   4  209.50    6.67
   0   8  -4  209.17    6.77
   0   8  -4  193.44   12.64
   0   8  -4  202.16    6.53
   0   8   4  201.07    6.59
   1  -8   4  146.59    4.71
  -1  -8  -4  142.11    8.17
   1   8   4  132.56    8.36
   1   8   4  144.86    4.97
  -1   8  -4  149.41    4.86
   1   8   4  139.75    4.85
  -1   8  -4  136.90    8.36
  -1   8  -4  140.43    8.29
  -2  -8  -4   18.60    3.11
  -2   8  -4   16.75    3.36
   2   8   4   18.47    1.00
  -2   8  -4   15.40    2.39
   2   8   4   17.32    3.04
  -2   8  -4   18.86    0.90
  -3  -8  -4  289.90   16.10
   3   8   4  288.26   16.22
  -3   8  -4  307.61    9.53
   3   8   4  293.00    9.80
  -3   8  -4  284.77   13.45
  -3   8  -4  280.47   14.96
  -4  -8  -4    0.22    1.21
   4   8   4   -0.10    1.18
  -4   8  -4    1.59    1.22
   4   8   4    0.78    0.26
  -4   8  -4    0.56    0.16
   5  -8   4  220.53   12.01
  -5  -8  -4  214.64   15.32
   5   8   4  241.18   16.37
  -5   8  -4  211.68   14.09
   5   8   4  228.67    7.98
   5   8   4  229.10    7.99
   6  -8   4   44.52    1.67
   6  -8   4   44.54    1.72
   6  -8   4   42.11    4.86
  -6  -8  -4   45.56    7.10
   6   8   4   41.89    2.29
   6   8   4   47.42    7.04
  -6   8  -4   40.92    5.80
  -7  -8  -4   55.45    8.27
   7  -8   4   46.07    5.74
   7  -8   4   57.80    2.11
  -7   8  -4   57.00    7.79
   7   8   4   54.15    2.73
   7   8   4   54.50    2.71
   8  -8   4   41.18    6.09
   8  -8   4   43.21    1.71
  -8  -8  -4   29.33    7.25
   8   8   4   41.49    2.30
   8   8   4   38.06    2.21
   8   8   4   30.32    7.40
  -8   8  -4   38.21    6.72
   9  -8   4    0.17    0.21
   9   8   4    0.35    0.30
  -9   8  -4    2.13    4.23
   9   8   4    0.25    0.19
   8  -9  -4   14.28    2.74
  -8  -9   4   20.45    5.68
   8   9  -4   16.26    1.21
  -8   9   4   14.73    2.89
   8   9  -4   17.04    1.32
   8   9  -4    7.70    5.34
  -7  -9   4  105.04   11.37
   7  -9  -4   95.05    5.70
   7   9  -4  107.40    4.34
   7   9  -4  103.92   14.35
   7   9  -4  104.28    4.18
  -7   9   4  108.98    6.46
  -6  -9   4   53.37    7.67
   6   9  -4   51.91    2.42
   6   9  -4   57.30    8.08
   6   9  -4   55.12    2.58
  -6   9   4   53.54    3.39
  -5  -9   4   61.51    7.38
   5   9  -4   61.75    7.94
   5   9  -4   66.26    2.70
   5   9  -4   62.07    2.80
  -4  -9   4   38.67    5.45
   4   9  -4   48.84    2.03
   4   9  -4   42.59    6.19
   4   9  -4   46.23    2.14
  -3  -9   4  149.80   10.73
   3   9  -4  158.53    5.28
   3   9  -4  138.95   10.86
   3   9  -4  151.98    5.44
  -2  -9   4   86.22    7.39
  -2  -9   4   89.15    3.31
   2   9  -4   93.34    3.20
   2   9  -4   83.64    7.52
   2   9  -4   87.38    3.37
  -1  -9   4  442.83   13.98
  -1  -9   4  442.00   19.65
   1   9  -4  441.51   14.10
   1   9  -4  396.21   19.62
   1   9  -4  439.97   13.85
   0  -9   4    0.23    0.10
   0  -9  -4    0.30    0.48
   0   9  -4    0.73    0.77
   0   9  -4    0.36    0.14
   0   9  -4    0.09    0.06
   0   9   4    0.27    0.10
   0   9   4    0.43    0.57
   0   9   4    0.17    0.09
  -1  -9  -4  439.73   18.54
   1   9   4  460.99   14.42
   1   9   4  433.01   19.22
  -1   9  -4  419.60   19.06
   1   9   4  443.94   14.32
  -1   9  -4  460.46   14.31
  -1   9  -4  443.35   19.10
  -2  -9  -4   88.32    7.15
  -2   9  -4   81.79    6.62
   2   9   4   90.89    7.56
  -2   9  -4   84.86    6.25
  -2   9  -4   92.14    3.22
   2   9   4   92.46    3.38
  -3  -9  -4  157.32   11.36
  -3   9  -4  188.24    9.86
  -3   9  -4  166.97   10.77
  -3   9  -4  173.20    5.79
   3   9   4  174.58    6.08
   3   9   4  159.11   11.68
  -4  -9  -4   45.46    6.19
   4   9   4   47.88    2.24
   4   9   4   49.74    2.26
  -4   9  -4   49.34    1.96
   4   9   4   46.17    6.23
  -4   9  -4   42.98    5.58
  -5  -9  -4   63.71    7.74
  -5   9  -4   60.46    2.38
   5   9   4   59.65    2.71
   5   9   4   58.16    2.68
  -5   9  -4   50.39    6.46
   5   9   4   58.29    7.60
  -6  -9  -4   48.79    7.51
   6  -9   4   46.98    5.09
   6   9   4   54.86    2.62
   6   9   4   54.32    2.58
  -6   9  -4   47.16    6.44
   7  -9   4   93.98    7.98
  -7  -9  -4  113.74   12.50
   7   9   4  102.32    4.30
   7   9   4  103.14   12.03
   7   9   4   97.54    4.21
  -7   9  -4   96.07    9.81
   8  -9   4   12.53    3.74
   8   9   4   11.89    1.13
   8   9   4   11.37    1.07
  -8   9  -4   14.84    4.20
  -8  10   4    2.44    1.52
   8  10  -4    2.98    0.60
  -7 -10   4    1.86    2.79
   7  10  -4    4.75    0.74
   7  10  -4    0.89    2.91
   7  10  -4    6.03    0.66
  -6 -10   4    3.31    1.75
   6  10  -4    0.28    0.14
   6  10  -4    0.77    0.28
  -5 -10   4   37.92    7.07
   5  10  -4   35.81    1.74
   5  10  -4   26.03    5.97
   5  10  -4   35.49    1.87
  -4 -10   4    9.48    3.01
   4  10  -4   11.25    3.53
   4  10  -4   13.08    0.94
   4  10  -4   10.74    0.77
  -3 -10   4   95.35    8.56
   3  10  -4   85.26    8.56
   3  10  -4   93.10    3.43
   3  10  -4   95.69    3.66
  -2 -10   4   24.32    1.21
  -2 -10   4   19.42    3.93
   2  10  -4   24.61    1.13
   2  10  -4   24.73    1.31
   2  10  -4   23.23    4.72
  -1 -10   4   19.60    0.95
  -1 -10   4   21.64    3.40
   1  10  -4   19.65    0.88
   1  10  -4   17.64    1.02
   1  10  -4   11.94    2.92
   0 -10  -4    0.73    0.62
   0  10   4    0.01    0.10
   0  10   4    0.15    0.08
   0  10  -4    0.42    0.15
   0  10  -4    0.85    0.98
   0  10   4    0.30    0.52
  -1 -10  -4   19.48    2.63
  -1  10  -4   13.57    2.83
  -1  10  -4   16.05    3.30
   1  10   4   14.16    1.07
   1  10   4   17.44    2.92
   1  10   4   15.63    0.88
  -2 -10  -4   21.14    3.32
  -2  10  -4   19.93    1.12
   2  10   4   18.35    1.29
   2  10   4   21.55    1.13
  -2  10  -4   19.33    3.23
  -3 -10  -4   78.63    7.83
   3  10   4   93.76    3.60
  -3  10  -4   96.19    3.37
  -3  10  -4   90.02    7.66
   3  10   4   94.97    3.63
   3  10   4   86.58    8.70
  -4 -10  -4   15.73    4.05
  -4  10  -4   11.15    0.70
  -4  10  -4    6.64    2.42
   4  10   4   10.53    0.87
   4  10   4   12.07    0.91
  -5 -10  -4   33.35    7.14
   5  10   4   34.14    1.86
   5  10   4   31.84    1.79
  -5  10  -4   34.68    1.56
  -5  10  -4   32.58    4.84
   5  10   4   25.94    6.60
  -6 -10  -4   -1.04    1.83
  -6  10  -4    0.03    1.84
   6  10   4    0.40    0.30
   6  10   4    0.42    0.21
   6  10   4    3.59    2.82
  -7  10  -4   -1.67    2.38
   7  10   4    3.53    0.63
   7  10   4    2.77    0.61
   8 -10   4    3.62    2.77
  -8  10  -4    5.73    3.39
   8  10   4    2.12    0.54
   7  11  -4   10.39    0.93
   7  11  -4   12.65    1.53
  -6 -11   4   31.08    6.59
   6  11  -4   43.02    2.24
   6  11  -4   45.34    8.64
   6  11  -4   42.85    2.08
  -5 -11   4   20.11    4.99
   5  11  -4   22.38    5.72
   5  11  -4   23.38    1.80
   5  11  -4   23.83    1.48
  -4 -11   4   73.62   10.63
   4  11  -4   62.19    2.56
   4  11  -4   60.63    2.80
  -3 -11   4    1.69    1.34
   3  11  -4    0.47    0.17
   3  11  -4    0.69    0.23
  -2 -11   4   44.14    1.86
  -2 -11   4   42.33    5.23
   2  11  -4   45.00    2.01
   2  11  -4   39.34    5.60
  -1 -11   4    2.07    1.19
  -1 -11   4    1.38    0.25
   1  11  -4    1.81    0.22
   1  11  -4    2.09    0.35
   1  11  -4    1.54    1.26
   0 -11  -4    0.32    0.55
   0  11   4    0.33    0.11
   0  11   4   -0.04    0.06
   0  11  -4    0.15    0.08
   0  11   4    0.57    0.77
   0  11   4   -0.13    0.09
  -1 -11  -4    3.21    1.37
  -1  11  -4    2.45    1.31
   1  11   4    3.01    0.43
  -1  11  -4    3.34    0.35
   1  11   4    2.58    0.31
   1  11   4    3.64    1.61
   1  11   4    3.59    0.37
  -2 -11  -4   46.07    5.07
  -2  11  -4   44.57    4.83
   2  11   4   42.38    1.94
  -2  11  -4   41.23    1.77
   2  11   4   39.57    1.88
  -3 -11  -4    0.97    1.89
   3  11   4    0.10    0.13
   3  11   4    0.19    0.13
  -3  11  -4    0.28    0.13
  -3  11  -4   -1.23    1.05
  -4 -11  -4   51.20    6.86
  -4  11  -4   62.84    2.45
   4  11   4   59.23    7.35
  -4  11  -4   50.68    6.09
   4  11   4   64.36    2.73
   4  11   4   60.61    2.75
  -4  11  -4   69.88    5.73
  -5 -11  -4   14.48    4.32
  -5  11  -4   23.50    1.22
   5  11   4   23.61    1.49
  -5  11  -4   23.51    4.88
   5  11   4   22.10    5.66
   6  11   4   47.81    2.40
   6  11   4   47.62    2.46
  -6  11  -4   41.66    6.65
   7  11   4   10.30    1.02
   7  11   4   11.66    1.06
  -7  11  -4    8.55    3.06
   6  12  -4   37.15    1.92
   6  12  -4   38.36    2.12
   5  12  -4   37.47    2.07
   5  12  -4   40.89    1.92
  -4 -12   4    0.65    1.49
   4  12  -4    0.09    0.12
   4  12  -4    0.08    0.13
   4  12  -4   -1.63    2.23
  -3 -12   4   10.43    3.09
   3  12  -4   12.39    1.12
   3  12  -4    9.26    3.24
   3  12  -4   12.74    0.80
  -2 -12   4  113.48    9.48
   2  12  -4  138.10    4.53
   2  12  -4  120.98   10.57
   2  12  -4  133.12    4.84
  -1 -12   4   22.40    3.86
   1  12  -4   22.25    4.73
   1  12  -4   20.56    0.92
   1  12  -4   18.50    1.12
  -1  12   4   20.06    0.95
   0  12   4  441.22   18.10
   0  12   4  453.90   14.34
   0  12  -4  437.63   14.49
   0  12  -4  440.59   20.31
  -1 -12  -4   21.69    3.07
   1  12   4   21.88    1.11
  -1  12  -4   22.01    1.15
   1  12   4   22.37    1.06
  -1  12  -4   18.62    3.76
   1  12   4   20.15    3.39
  -2 -12  -4  124.35    9.17
   2  12   4  140.74    4.96
   2  12   4  136.57    4.81
  -2  12  -4  138.49    4.78
  -2  12  -4  124.68    9.23
  -3 -12  -4   13.13    3.47
  -3  12  -4   12.73    0.81
   3  12   4    8.44    3.69
   3  12   4   13.63    0.91
  -3  12  -4   13.72    2.82
   3  12   4   13.12    0.96
  -3  12  -4    9.95    2.93
   4  12   4    0.64    0.28
  -4  12  -4    0.37    0.18
  -4  12  -4    0.97    1.76
   4  12   4    1.39    0.38
   5  12   4   41.34    2.08
   5  12   4   39.64    2.15
  -5  12  -4   40.64    1.82
  -5  12  -4   30.22    5.34
   6  12   4   35.45    1.98
   6  12   4   35.25    2.06
  -6  12  -4   32.50    5.67
   5  13  -4    3.83    0.66
   5  13  -4    5.95    0.61
   4  13  -4  177.23    6.52
   4  13  -4  174.28    6.18
   3  13  -4   15.44    0.93
   3  13  -4   17.22    1.15
   2  13  -4   59.81    2.35
   2  13  -4   64.21    2.74
  -1 -13   4   51.42    7.47
   1  13  -4   48.94    7.40
   1  13  -4   48.74    1.86
   1  13  -4   48.05    2.20
  -1  13   4   51.42    1.96
   0  13  -4    0.40    0.15
   0  13   4    0.67    0.86
   0  13  -4    0.72    0.95
   0  13  -4    2.09    1.55
  -1 -13  -4   46.64    4.57
   1  13   4   49.18    1.99
  -1  13  -4   44.82    6.97
  -1  13  -4   43.02    5.23
  -1  13  -4   51.26    2.13
   1  13   4   47.97    1.91
   1  13   4   49.65    2.13
   1  13   4   50.89    5.36
   2  13   4   57.08    2.50
  -2  13  -4   57.25    2.36
   2  13   4   57.72    2.34
  -2  13  -4   58.47    6.05
  -3  13  -4   13.70    4.51
   3  13   4   15.24    1.10
   3  13   4   16.52    1.03
  -3  13  -4   15.50    0.95
   4  13   4  185.81    6.55
  -4  13  -4  167.30   11.85
  -4  13  -4  185.41    6.31
   4  13   4  179.27    6.69
  -5  13  -4    4.40    0.47
   5  13   4    4.58    0.68
   5  13   4    3.82    0.67
   4  14  -4    7.18    0.79
   4  14  -4    6.65    1.08
   3  14  -4   18.36    1.02
   3  14  -4   19.13    1.27
   2  14  -4    4.80    0.42
   2  14  -4    6.49    0.64
  -1  14   4    7.42    0.55
   0  14  -4   21.87    1.27
   0  14   4   22.23    2.38
   0  14  -4   27.31    4.08
   0  14   4   22.54    1.18
  -1  14  -4    3.24    2.40
   1  14   4    6.73    0.58
  -1  14  -4    4.81    0.52
   2  14   4    6.83    0.66
   2  14   4    6.00    0.52
  -2  14  -4    5.89    0.54
  -3  14  -4   13.30    3.24
   3  14   4   21.47    1.21
   3  14   4   16.93    1.84
  -3  14  -4   22.81    1.19
   4  14   4    5.92    0.74
  -4  14  -4    0.77    2.18
   4  14   4    6.12    1.12
  -4  14  -4    6.43    0.60
   3  15  -4   24.64    1.23
   3  15  -4   24.56    1.52
   2  15  -4    0.41    0.18
   2  15  -4   -0.26    0.19
   1  15  -4  131.43   10.22
  -1  15   4  150.22    5.12
   1  15  -4  151.18    5.48
   0  15  -4   -2.54    1.33
   0  15  -4    0.41    0.18
   0  15   4   -0.34    0.15
  -1  15  -4  136.23   10.06
  -1  15  -4  151.90    5.82
   1  15   4  145.99    5.32
   2  15   4    0.63    0.28
  -2  15  -4   -1.56    1.58
   2  15   4    0.04    0.15
  -2  15  -4    0.20    0.20
   3  15   4   28.25    1.65
  -3  15  -4   29.16    1.49
   3  15   4   28.19    1.46
  -3  15  -4   28.47    4.59
  10   0  -5    4.12    4.74
  -9   0   5    3.56    2.48
   9   0  -5    7.98    0.71
   9   0  -5    6.89    3.86
   9   0  -5    6.53    0.60
  -8   0   5    4.57    2.16
   8   0  -5    0.44    0.16
   8   0  -5   -1.26    1.69
   7   0  -5   55.52    7.23
   7   0  -5   47.96    2.05
   7   0  -5   49.09    2.15
  -7   0   5   53.47    6.43
   6   0  -5    0.06    0.08
   6   0  -5   -0.01    0.06
   6   0  -5   -1.75    0.82
  -6   0   5   -0.21    0.65
   5   0  -5   41.78    5.57
  -5   0   5   41.58    5.19
   5   0  -5   29.11    1.35
   5   0  -5   32.63    1.44
  -4   0   5    1.09    0.65
   4   0  -5    0.48    0.67
   3   0  -5    2.44    0.22
   3   0  -5    2.74    0.25
  -3   0   5    1.22    0.79
  -3   0   5    2.37    0.24
  -3   0   5    2.34    0.25
  -2   0   5    0.06    0.04
   2   0  -5    0.02    0.03
  -2   0   5    0.31    0.33
   2   0  -5    0.02    0.03
  -2   0   5   -0.05    0.03
  -1   0   5   16.88    1.88
   1   0  -5   16.14    0.64
  -1   0   5   15.71    0.67
  -1   0   5   14.94    0.65
   0   0  -5    0.00    0.02
   0   0  -5   -0.03    0.02
   0   0   5   -0.11    0.16
   0   0   5    0.02    0.03
   0   0   5    0.00    0.02
   0   0  -5    0.13    0.27
   1   0   5    6.90    0.37
   1   0   5    7.18    1.61
  -1   0  -5    7.01    1.74
  -1   0  -5    6.35    0.44
  -2   0  -5    0.29    0.55
   2   0   5   -0.01    0.06
   2   0   5   -0.11    0.43
  -3   0  -5    5.67    3.98
   4   0   5    0.68    0.97
  -5   0  -5   16.90    4.72
   5   0   5   16.40    1.01
   5   0   5   17.29    4.26
   6   0   5    0.41    1.25
   7   0   5    0.78    1.60
  -7   0  -5    1.37    2.02
   8   0   5    0.00    0.12
   8   0   5    1.62    2.09
  -8   0  -5   -1.41    2.29
   9   0   5   13.67    4.81
   9   0   5   17.39    1.26
   9   0   5   16.63    1.25
  -9   0  -5   23.28    6.54
 -10   0  -5   -2.42    3.45
  10   0   5   -0.02    0.24
  10   0   5    2.05    4.06
  10   0   5    0.42    0.24
  10  -1  -5    3.21    0.47
  10  -1  -5    3.73    0.57
  10  -1  -5    5.20    4.51
 -10  -1   5   -1.30    3.11
  10   1  -5    4.48    0.53
  10   1  -5    3.65    0.58
 -10   1   5    0.67    2.84
  10   1  -5    3.34    4.58
  -9  -1   5    6.64    3.35
   9  -1  -5    7.03    0.67
   9  -1  -5    7.35    0.59
   9  -1  -5    5.97    3.69
  -9   1   5    3.88    3.29
   9   1  -5   13.62    4.65
   9   1  -5    7.14    0.72
   8  -1  -5    1.06    0.24
   8  -1  -5    0.43    0.20
  -8  -1   5   -2.95    1.45
   8   1  -5    2.42    2.56
   8   1  -5    0.76    0.24
  -8   1   5    1.67    1.83
   8   1  -5    0.73    0.32
   7  -1  -5    6.49    0.56
   7  -1  -5    6.07    0.48
  -7  -1   5    5.82    2.85
   7   1  -5    2.20    1.61
   7   1  -5    6.61    0.56
  -7   1   5    5.20    2.14
   7   1  -5    6.76    0.59
  -6  -1   5    1.76    1.40
   6  -1  -5    1.31    0.27
   6  -1  -5    1.66    0.27
  -6   1   5    2.49    1.36
   6   1  -5    1.64    0.32
   6   1  -5    1.68    0.33
   6   1  -5    2.28    1.53
   5  -1  -5   16.86    0.82
   5  -1  -5   16.77    0.89
  -5  -1   5   12.99    3.06
   5  -1  -5   18.79    4.34
   5   1  -5   17.52    0.92
   5   1  -5   19.24    4.31
  -5   1   5   15.81    3.46
   5   1  -5   18.68    0.97
  -4  -1   5    2.47    1.15
   4  -1  -5    2.83    0.24
   4  -1  -5    3.09    1.47
  -4  -1   5    2.56    0.31
   4  -1  -5    2.91    0.28
  -4  -1   5    2.70    0.31
   4   1  -5    2.30    1.48
  -4   1   5    1.84    0.29
   4   1  -5    2.75    0.28
  -4   1   5    3.34    1.28
   4   1  -5    2.51    0.28
   3  -1  -5    8.68    0.49
   3  -1  -5    8.70    0.43
  -3  -1   5    8.52    2.17
   3  -1  -5   10.00    2.49
  -3  -1   5    9.06    0.56
  -3  -1   5    8.68    0.54
  -3   1   5    8.33    0.49
   3   1  -5    9.49    0.54
   3   1  -5    9.96    2.59
   3   1  -5    8.68    0.51
  -3   1   5    7.99    0.50
  -3   1   5   11.12    1.94
  -2  -1   5    0.40    0.40
  -2  -1   5    0.16    0.07
  -2  -1   5    0.20    0.07
   2  -1  -5    0.21    0.07
   2   1  -5    0.25    0.45
  -2   1   5    0.20    0.07
  -2   1   5    0.25    0.09
   2   1  -5    0.26    0.08
   2   1  -5    0.23    0.07
   1  -1  -5    8.21    1.25
   1  -1  -5    6.86    0.31
   1  -1  -5    6.79    0.37
  -1  -1   5    7.88    1.70
  -1  -1   5    6.83    0.39
  -1   1   5    6.64    0.33
   1   1  -5    6.91    0.38
   1   1  -5    9.44    1.56
  -1   1   5    6.64    0.37
   1   1  -5    6.83    0.37
  -1   1   5    8.09    1.19
   0  -1   5    1.62    0.16
   0  -1  -5    1.13    0.60
   0  -1   5    1.76    0.16
   0  -1  -5    1.72    0.18
   0   1   5    1.50    0.13
   0   1  -5    1.92    0.18
   0   1  -5    2.28    0.82
   0   1  -5    1.49    0.15
   0   1  -5    1.68    0.75
   0   1   5    1.64    0.17
   0   1   5    2.43    0.79
   1  -1   5   12.42    0.60
  -1  -1  -5   11.15    0.65
  -1  -1  -5   13.57    2.08
   1  -1   5   12.63    1.90
   1  -1   5   12.23    0.55
   1   1   5   12.18    0.65
  -1   1  -5   12.45    2.00
   1   1   5   12.67    1.92
  -1   1  -5   11.38    0.62
  -2  -1  -5    3.70    1.50
   2  -1   5    2.50    0.22
   2  -1   5    2.65    1.11
   2  -1   5    1.99    0.24
  -2   1  -5    2.50    1.19
   2   1   5    2.36    0.29
   2   1   5    1.51    0.91
   3  -1   5    3.85    0.31
   3  -1   5    4.58    1.61
  -3  -1  -5    2.25    1.35
  -3   1  -5    3.50    1.40
   3   1   5    3.47    1.60
  -4  -1  -5   10.75    3.12
   4  -1   5   11.21    0.73
   4  -1   5   10.04    2.79
   4   1   5   14.21    3.90
  -4   1  -5    8.02    2.99
   4   1   5    9.81    0.72
  -5  -1  -5   11.99    3.17
   5  -1   5   11.93    3.17
   5  -1   5   10.46    0.75
  -5   1  -5    6.00    2.23
   5   1   5    9.57    0.75
   5   1   5    8.64    2.90
  -6  -1  -5    1.66    1.68
   6  -1   5   -0.19    1.49
   6  -1   5    0.56    0.22
   6   1   5    0.45    0.23
  -6   1  -5    1.15    1.36
   6   1   5   -0.22    1.08
   7  -1   5   34.69    1.79
   7  -1   5   40.20    6.19
  -7  -1  -5   34.06    7.45
   7   1   5   37.47    5.97
  -7   1  -5   30.99    7.09
   7   1   5   35.72    1.87
  -8  -1  -5    7.63    3.84
   8  -1   5    3.16    0.56
   8  -1   5    2.49    2.44
   8  -1   5    3.27    0.58
  -8   1  -5    9.22    3.74
   8   1   5    1.93    0.53
   8   1   5    1.06    2.28
   9  -1   5    3.27    0.59
  -9  -1  -5    0.52    2.46
   9  -1   5    5.97    3.20
   9  -1   5    3.99    0.65
   9   1   5    0.54    2.49
  -9   1  -5    0.57    3.08
   9   1   5    3.46    0.61
   9   1   5    2.49    0.57
  10  -1   5    3.16    4.49
  10  -1   5    2.15    0.44
  10  -1   5    1.57    0.41
  10   1   5    2.25    0.48
  10   1   5    1.75    0.47
  10   1   5   -4.89    3.50
  10  -2  -5   12.18    0.76
  10  -2  -5   11.51    6.18
 -10  -2   5   10.05    4.86
  10  -2  -5   12.12    0.92
  10   2  -5   12.23    0.95
 -10   2   5    7.08    3.66
  10   2  -5   11.05    0.97
   9  -2  -5    1.06    0.28
   9  -2  -5    3.05    3.55
  -9  -2   5   -0.17    2.13
   9  -2  -5    0.49    0.19
   9   2  -5    0.25    0.21
  -9   2   5    1.19    1.68
   9   2  -5   -0.24    2.91
   9   2  -5    0.35    0.24
   8  -2  -5   20.27    5.36
   8  -2  -5   11.51    0.81
  -8  -2   5    6.16    2.95
   8  -2  -5   12.39    0.71
   8   2  -5   12.69    0.94
   8   2  -5   11.48    0.86
  -8   2   5   13.10    3.63
   7  -2  -5    4.76    0.46
   7  -2  -5    2.84    1.86
   7  -2  -5    5.03    0.39
  -7  -2   5    1.81    1.96
   7   2  -5    5.50    0.55
  -7   2   5    3.26    1.44
   7   2  -5    5.36    0.53
   7   2  -5    0.35    1.95
   6  -2  -5    3.69    0.36
   6  -2  -5    3.25    0.28
   6  -2  -5    2.88    1.66
  -6  -2   5   -0.10    1.35
  -6   2   5    2.60    1.45
   6   2  -5    3.10    2.10
   6   2  -5    3.69    0.41
   6   2  -5    3.54    0.39
   5  -2  -5    0.33    0.79
  -5  -2   5    1.53    1.06
   5  -2  -5    0.50    0.14
   5  -2  -5    0.34    0.09
  -5   2   5    1.38    1.14
   5   2  -5    0.44    0.14
   5   2  -5    0.28    0.13
  -5   2   5    0.51    0.15
  -5   2   5    0.04    0.09
   5   2  -5    0.32    0.91
  -4  -2   5    7.96    0.64
   4  -2  -5    7.77    0.39
   4  -2  -5    7.21    2.10
   4  -2  -5    8.26    0.50
  -4  -2   5   10.57    2.79
  -4  -2   5    8.30    0.90
   4   2  -5    4.86    2.15
  -4   2   5    8.31    0.52
  -4   2   5    7.55    0.54
  -4   2   5    6.41    1.80
   4   2  -5    7.57    0.54
   4   2  -5    8.86    0.58
  -3  -2   5    1.38    0.95
   3  -2  -5    1.62    0.18
  -3  -2   5    1.48    0.26
  -3  -2   5    1.87    0.29
   3  -2  -5    3.00    1.21
   3  -2  -5    1.55    0.12
  -3   2   5    1.34    0.21
   3   2  -5    2.05    0.29
   3   2  -5    1.34    0.90
   3   2  -5    1.46    0.24
  -3   2   5    2.50    0.94
  -3   2   5    1.61    0.17
  -2  -2   5    4.32    0.33
  -2  -2   5    4.38    1.46
  -2  -2   5    4.30    0.34
   2  -2  -5    4.24    1.14
   2  -2  -5    4.45    0.29
  -2   2   5    5.49    1.21
  -2   2   5    4.35    0.25
   2   2  -5    3.74    1.39
   2   2  -5    4.23    0.33
   2   2  -5    5.23    0.35
  -2   2   5    4.47    0.30
   1  -2  -5   10.01    1.21
   1  -2  -5    9.44    0.47
  -1  -2   5   10.25    0.50
  -1  -2   5   10.79    1.78
   1  -2  -5   10.63    1.28
   1   2  -5   11.02    1.81
  -1   2   5    9.27    0.40
   1   2  -5    9.67    0.50
  -1   2   5    9.70    0.47
   1   2  -5    9.51    0.48
   0  -2  -5   10.51    0.58
   0  -2  -5   14.73    1.76
   0  -2   5   11.85    0.53
   0   2  -5   11.06    0.53
   0   2   5   11.46    0.57
   0   2  -5   11.79    0.55
   0   2   5   11.40    1.48
   0   2  -5   12.75    1.88
   0   2  -5   12.52    1.82
   1  -2   5   10.23    0.52
   1  -2   5   11.04    1.86
  -1  -2  -5   12.12    2.04
   1  -2   5   11.10    0.53
  -1   2  -5   10.37    0.52
   1   2   5   14.47    2.12
   1   2   5   10.69    0.62
  -1   2  -5   10.82    0.57
  -1   2  -5   14.00    2.10
   2  -2   5    3.79    0.28
  -2  -2  -5    5.66    2.00
   2  -2   5    3.23    1.22
   2  -2   5    4.50    0.35
  -2   2  -5    4.71    1.60
  -2   2  -5    3.99    0.29
   2   2   5    4.72    1.68
   3  -2   5    0.02    0.06
  -3  -2  -5    0.69    0.91
   3  -2   5    0.85    0.87
   3  -2   5    0.09    0.05
  -3   2  -5    0.18    0.70
   3   2   5    0.08    0.08
   3   2   5    0.06    0.62
   4  -2   5    3.91    0.41
  -4  -2  -5    2.81    1.59
   4  -2   5    5.58    2.08
   4  -2   5    4.63    0.36
   4   2   5    4.64    0.46
  -4   2  -5    3.70    2.19
   4   2   5    5.24    2.33
   5  -2   5    6.74    2.36
  -5  -2  -5    5.89    2.58
   5   2   5    5.48    2.17
   5   2   5    5.84    0.57
  -5   2  -5    3.87    2.02
   6  -2   5   22.12    1.25
  -6  -2  -5   14.60    4.06
   6  -2   5   27.54    4.66
   6   2   5   24.23    1.39
  -6   2  -5   22.18    5.18
   6   2   5   22.83    5.13
  -7  -2  -5    6.97    2.73
   7  -2   5    5.00    2.39
   7  -2   5    4.03    0.60
   7   2   5    2.93    2.59
   7   2   5    4.33    0.69
  -7   2  -5    3.51    2.31
   8  -2   5    7.44    0.71
  -8  -2  -5    4.30    3.25
   8  -2   5    7.33    3.67
   8  -2   5    6.46    0.65
  -8   2  -5    4.73    2.50
   8   2   5    2.65    2.80
   8   2   5    7.26    0.79
   8   2   5    7.59    0.78
   9  -2   5    3.08    0.57
   9  -2   5    3.73    3.01
   9  -2   5    1.97    0.47
  -9  -2  -5    8.33    3.95
   9   2   5    2.02    0.52
   9   2   5    1.21    2.52
   9   2   5    1.53    0.42
  -9   2  -5    2.92    3.42
 -10  -2  -5   -1.79    2.82
  10  -2   5    0.13    0.23
  10  -2   5    0.15    0.24
  10  -2   5    3.68    4.28
  10   2   5   -4.31    3.10
 -10   2  -5    3.73    4.56
  10   2   5    0.27    0.22
  10   2   5    0.64    0.27
  10  -3  -5    4.05    5.04
 -10  -3   5   -0.15    3.02
  10   3  -5   -4.85    4.72
  10   3  -5    1.99    0.65
 -10   3   5   -0.14    2.38
   9  -3  -5    0.46    0.18
  -9  -3   5   -0.78    2.06
   9  -3  -5    3.66    3.30
   9  -3  -5    0.33    0.16
  -9   3   5    0.32    1.98
   9   3  -5    0.40    0.22
   9   3  -5    3.44    3.78
  -8  -3   5   12.30    3.98
   8  -3  -5   15.22    0.73
   8  -3  -5   14.88    0.73
   8  -3  -5   10.15    4.00
   8  -3  -5   14.95    0.92
   8   3  -5   14.40    1.34
   8   3  -5   20.09    6.05
  -8   3   5   12.96    3.64
   8   3  -5   15.43    1.07
   7  -3  -5    0.60    0.20
   7  -3  -5    0.63    0.13
   7  -3  -5    1.04    1.55
  -7  -3   5    1.18    1.30
   7   3  -5    0.76    0.24
   7   3  -5    0.52    0.20
  -7   3   5    0.40    1.08
   7   3  -5    1.61    2.03
  -6  -3   5   34.72    5.17
   6  -3  -5   38.66    1.63
   6  -3  -5   35.91    5.22
   6   3  -5   37.13    5.41
   6   3  -5   38.27    1.78
  -6   3   5   40.05    4.75
   6   3  -5   39.20    1.80
   5  -3  -5    0.23    0.09
   5  -3  -5   -0.24    0.59
  -5  -3   5    0.26    0.65
  -5   3   5    0.07    0.08
  -5   3   5    0.24    0.56
  -5   3   5    0.24    0.12
   5   3  -5    1.19    1.07
   5   3  -5    0.00    0.07
  -4  -3   5    4.64    1.95
   4  -3  -5    2.35    1.32
   4  -3  -5    3.21    0.28
  -4   3   5    3.69    0.31
   4   3  -5    3.17    1.86
   4   3  -5    3.19    0.34
  -4   3   5    3.45    0.33
   4   3  -5    3.31    0.36
  -4   3   5    3.82    1.43
  -3  -3   5    6.87    0.52
  -3  -3   5    7.20    2.29
   3  -3  -5    6.42    0.38
  -3   3   5    6.79    0.37
  -3   3   5    7.04    2.33
   3   3  -5    5.50    1.99
  -3   3   5    6.24    0.41
   3   3  -5    6.59    0.48
   3   3  -5    7.05    0.48
   2  -3  -5    2.99    0.23
  -2  -3   5    3.05    0.28
  -2  -3   5    2.48    1.07
  -2  -3   5    3.10    0.29
   2  -3  -5    3.38    0.93
  -2   3   5    3.00    0.23
  -2   3   5    3.38    0.80
   2   3  -5    2.28    1.15
   2   3  -5    3.05    0.27
   2   3  -5    2.82    0.28
  -1  -3   5    6.14    1.60
   1  -3  -5    7.03    0.40
  -1  -3   5    6.89    0.40
   1  -3  -5    7.91    0.95
  -1  -3   5    7.34    0.45
   1  -3  -5    6.94    0.92
   1   3  -5    6.73    1.84
   1   3  -5    6.50    0.42
   1   3  -5    6.75    0.39
  -1   3   5    7.42    0.38
   0  -3  -5   32.24    2.79
   0  -3  -5   31.66    1.28
   0  -3   5   31.47    1.17
   0  -3   5   31.09    1.23
   0   3  -5   29.45    1.17
   0   3  -5   33.49    1.24
   0   3  -5   34.31    3.31
   0   3   5   32.88    2.59
   0   3   5   30.94    1.24
  -1  -3  -5    0.89    0.72
   1  -3   5    0.93    0.15
   1  -3   5    0.68    0.12
  -1   3  -5    1.09    0.17
   1   3   5    0.11    0.47
  -1   3  -5    1.02    0.16
   1   3   5    0.67    0.16
  -1   3  -5    0.80    0.46
   2  -3   5    7.18    0.44
   2  -3   5    9.75    2.23
   2  -3   5    8.20    0.45
  -2  -3  -5    4.95    1.75
  -2   3  -5    7.62    0.45
   2   3   5    9.88    2.58
  -2   3  -5    7.03    2.06
   3  -3   5    0.46    0.13
   3  -3   5    0.38    0.44
  -3  -3  -5    0.88    0.78
   3  -3   5    0.53    0.12
  -3   3  -5    0.95    0.72
   3   3   5    0.35    0.13
   4  -3   5   27.03    1.31
  -4  -3  -5   27.89    4.82
   4  -3   5   27.63    1.18
   4  -3   5   30.71    4.36
   4  -3   5   26.72    1.29
   4   3   5   38.99    5.37
  -4   3  -5   28.96    4.66
   4   3   5   26.92    1.40
   5  -3   5   -0.42    0.58
  -5  -3  -5   -0.59    0.99
   5  -3   5    0.16    0.08
   5  -3   5    0.08    0.10
   5   3   5   -0.02    0.11
  -5   3  -5   -0.14    0.80
   5   3   5    0.93    1.05
   6  -3   5    2.02    1.50
  -6  -3  -5   -1.50    1.44
  -6   3  -5   -0.03    1.44
   6   3   5   -0.46    1.35
   7  -3   5   -1.61    0.86
  -7  -3  -5   -0.33    1.73
   7  -3   5   -0.13    0.13
   7   3   5    0.11    0.13
  -7   3  -5    2.67    1.70
   7   3   5   -1.50    1.36
   8  -3   5   18.85    1.18
   8  -3   5   17.22    4.50
   8  -3   5   19.91    1.23
  -8  -3  -5   10.56    5.02
  -8   3  -5   15.63    5.12
   8   3   5   19.93    1.37
   8   3   5   19.73    1.38
   8   3   5   12.86    4.50
   9  -3   5    0.47    0.27
  -9  -3  -5   -3.24    2.55
   9  -3   5    0.55    0.20
   9  -3   5   -2.12    2.75
  -9   3  -5   -2.89    2.73
   9   3   5   -1.63    3.16
   9   3   5    0.38    0.25
   9   3   5    0.04    0.24
  10  -3   5   31.04    1.66
  10  -3   5   30.58    1.73
 -10  -3  -5   29.57    7.33
  10  -3   5   37.77   10.61
 -10   3  -5   19.01    6.45
  10   3   5   30.09    2.14
  10   3   5   24.54    2.35
  10   3   5   26.28    7.52
  10  -4  -5   16.64    1.06
 -10  -4   5    8.49    5.39
 -10   4   5   15.63    6.83
  10   4  -5   15.39    1.22
  10   4  -5   15.42    1.18
  10   4  -5   14.27    7.74
  -9  -4   5    0.71    2.84
   9  -4  -5    1.66    0.52
   9  -4  -5    2.45    3.23
   9   4  -5    2.24    3.16
   9   4  -5    0.82    0.27
   9   4  -5    1.17    0.33
  -9   4   5    3.44    2.39
   8  -4  -5    4.76    2.51
  -8  -4   5    6.25    3.32
   8  -4  -5   11.29    0.75
   8   4  -5   10.27    0.87
  -8   4   5   11.48    3.23
   8   4  -5   11.11    0.90
   8   4  -5   13.19    4.91
  -7  -4   5    0.21    1.20
   7  -4  -5   -0.82    1.17
   7  -4  -5    0.15    0.12
  -7   4   5    0.86    1.21
   7   4  -5    0.44    0.16
   7   4  -5   -0.03    2.02
   7   4  -5    0.36    0.15
   6  -4  -5    1.76    1.29
  -6  -4   5    3.02    2.01
   6  -4  -5    3.70    0.34
  -6   4   5    2.95    1.63
   6   4  -5    2.90    0.45
   6   4  -5    2.52    0.44
   6   4  -5    0.71    1.18
   5  -4  -5    3.96    1.40
   5  -4  -5    2.18    0.24
  -5  -4   5    1.29    1.19
   5   4  -5    2.23    0.38
   5   4  -5    3.51    2.00
  -5   4   5    2.72    0.32
  -5   4   5    1.65    0.80
   5   4  -5    2.15    0.37
  -5   4   5    2.13    0.33
   4  -4  -5   38.26    1.48
  -4  -4   5   39.57    5.21
   4  -4  -5   44.80    4.44
  -4   4   5   39.88    1.52
  -4   4   5   39.17    1.58
   4   4  -5   37.12    1.69
   4   4  -5   37.61    1.67
  -4   4   5   45.05    3.88
   4   4  -5   33.83    5.10
   3  -4  -5    6.93    0.38
  -3  -4   5    6.42    2.09
  -3  -4   5    5.98    0.50
  -3  -4   5    6.58    0.51
   3  -4  -5    7.34    1.72
   3   4  -5    6.11    0.46
   3   4  -5    9.97    3.01
  -3   4   5    6.89    1.12
  -3   4   5    5.86    0.39
   3   4  -5    7.09    0.52
  -2  -4   5   16.89    2.73
   2  -4  -5   12.01    0.55
   2  -4  -5   12.02    1.27
  -2  -4   5   11.44    0.65
  -2   4   5   12.13    0.55
   2   4  -5   10.85    2.66
   2   4  -5   11.73    0.67
   2   4  -5   11.17    0.62
  -1  -4   5    9.34    0.50
  -1  -4   5    7.68    1.86
   1  -4  -5   10.68    1.08
  -1  -4   5    8.82    0.54
   1  -4  -5   11.07    0.93
   1  -4  -5    9.25    0.49
   1   4  -5    7.85    0.51
  -1   4   5    9.44    0.46
   1   4  -5    9.03    0.48
   1   4  -5    8.63    2.24
   0  -4   5    9.33    2.16
   0  -4  -5    8.95    1.46
   0  -4   5    8.87    0.49
   0  -4   5    8.25    0.43
   0   4  -5    8.00    0.47
   0   4  -5    6.99    1.72
   0   4   5    8.34    0.49
   0   4  -5    8.08    0.42
   0   4   5    9.13    1.35
  -1  -4  -5    0.13    0.57
   1  -4   5    0.40    0.08
   1  -4   5    0.63    0.13
  -1   4  -5   -0.17    0.38
   1   4   5   -0.01    0.51
  -1   4  -5    0.63    0.65
   1   4   5    0.42    0.13
  -1   4  -5    0.65    0.14
  -1   4  -5    0.57    0.13
  -2  -4  -5    1.63    1.40
   2  -4   5    2.34    0.22
   2  -4   5    1.97    0.19
  -2   4  -5    2.39    0.23
  -2   4  -5    0.97    0.80
   2   4   5    2.55    1.13
   3  -4   5    7.11    0.46
   3  -4   5    7.31    0.43
  -3  -4  -5    7.84    2.63
   3   4   5    9.29    2.86
  -3   4  -5    6.32    2.21
  -3   4  -5    7.14    0.47
   3   4   5    6.87    0.56
  -4  -4  -5    4.48    2.01
   4  -4   5    3.26    0.35
   4  -4   5    4.24    0.40
   4  -4   5    5.19    0.37
   4   4   5    4.09    2.20
   4   4   5    4.79    0.56
  -4   4  -5    2.05    1.31
  -5  -4  -5    2.70    1.42
   5  -4   5    4.69    0.36
   5  -4   5    1.50    1.13
   5  -4   5    4.19    0.42
   5  -4   5    3.50    0.42
  -5   4  -5    1.80    1.44
   5   4   5    2.98    0.49
   5   4   5    2.30    1.74
   6  -4   5   13.69    3.75
   6  -4   5   13.93    0.86
  -6  -4  -5    6.78    3.07
   6   4   5   11.87    3.58
  -6   4  -5   11.37    3.78
   6   4   5   12.65    0.97
   7  -4   5    0.01    1.12
  -7  -4  -5   -0.89    2.60
   7  -4   5    0.33    0.15
  -7   4  -5   -1.64    0.86
   7   4   5   -1.78    2.64
   7   4   5    0.29    0.19
  -8  -4  -5   13.18    4.44
   8  -4   5    9.42    3.34
   8  -4   5   13.13    0.92
   8  -4   5   12.60    0.89
   8   4   5   14.75    1.17
  -8   4  -5    7.17    3.28
   8   4   5   14.51    1.16
   8   4   5    5.52    3.41
   9  -4   5    4.00    3.11
   9  -4   5    7.88    0.95
   9  -4   5    7.69    0.67
  -9  -4  -5   13.78    4.71
   9   4   5    5.71    0.85
  -9   4  -5    4.76    3.28
   9   4   5    5.63    0.86
   9   4   5    8.44    4.43
 -10  -4  -5    2.55    5.29
  10  -4   5    0.94    0.29
  10  -4   5    1.35    0.38
  10   4   5    1.28    0.44
  10   4   5    1.19    0.36
  10   4   5   10.13    5.93
   9  -5  -5   14.76    0.93
   9  -5  -5   18.95    5.52
  -9  -5   5   20.54    5.73
  -9   5   5   21.61    4.82
   9   5  -5   14.52    5.57
   9   5  -5   14.73    1.15
   9   5  -5   14.31    1.11
  -8  -5   5    2.14    2.54
   8  -5  -5    0.36    0.16
   8  -5  -5   -2.22    1.55
   8   5  -5    0.03    0.16
   8   5  -5    0.77    0.27
  -8   5   5   -0.16    1.38
   8   5  -5    0.39    2.34
   7  -5  -5    1.27    0.24
  -7  -5   5    5.71    2.63
   7  -5  -5    2.24    1.83
   7   5  -5    1.26    0.34
   7   5  -5    0.59    0.28
   7   5  -5    3.94    2.90
  -7   5   5    1.98    1.17
   6  -5  -5    7.42    0.51
   6  -5  -5    8.04    2.69
  -6  -5   5    6.81    2.60
   6   5  -5    7.47    0.68
  -6   5   5    9.78    2.52
   6   5  -5    7.95    0.67
   6   5  -5    7.62    2.80
  -5  -5   5    0.76    1.02
   5  -5  -5   -0.02    0.71
   5  -5  -5    0.54    0.12
   5   5  -5    0.47    0.20
   5   5  -5    1.86    1.66
  -5   5   5    0.43    0.62
   5   5  -5    0.61    0.18
  -5   5   5    0.74    0.18
  -5   5   5    0.42    0.13
   4  -5  -5    4.09    0.30
   4  -5  -5    4.99    1.38
  -4  -5   5    3.70    1.73
  -4   5   5    3.73    1.07
  -4   5   5    4.40    0.31
   4   5  -5    3.62    0.41
   4   5  -5    2.48    1.51
   4   5  -5    3.94    0.41
  -4   5   5    4.20    0.35
  -3  -5   5   17.25    0.98
  -3  -5   5   15.24    3.56
   3  -5  -5   19.99    1.84
   3  -5  -5   18.97    0.78
   3   5  -5   14.55    3.48
  -3   5   5   22.15    1.61
   3   5  -5   17.92    0.92
  -3   5   5   17.86    0.80
   3   5  -5   16.90    1.02
  -2  -5   5    2.04    1.09
   2  -5  -5    2.22    0.20
  -2  -5   5    2.21    0.33
   2   5  -5    2.50    0.25
   2   5  -5    0.85    0.81
   2   5  -5    2.19    0.27
  -2   5   5    1.96    0.17
  -1  -5   5    2.82    0.25
  -1  -5   5    4.37    1.62
   1  -5  -5    3.24    0.27
  -1  -5   5    2.99    0.30
  -1   5   5    2.80    0.22
   1   5  -5    3.02    0.25
   1   5  -5    2.82    0.28
   1   5  -5    2.63    1.29
   0  -5   5    4.15    0.33
   0  -5   5    2.69    1.22
   0  -5  -5    4.41    1.20
   0  -5   5    4.27    0.29
   0   5  -5    4.02    0.28
   0   5  -5    4.47    1.37
   0   5   5    4.05    0.32
   0   5  -5    4.60    0.35
   0   5   5    4.77    1.24
  -1  -5  -5   10.48    2.45
   1  -5   5    8.79    0.50
   1  -5   5    9.51    0.44
   1   5   5   10.49    2.33
   1   5   5    9.62    0.62
  -1   5  -5    8.25    0.47
  -1   5  -5   11.29    2.43
  -1   5  -5    5.65    1.60
  -1   5  -5    9.16    0.52
   2  -5   5    1.32    0.16
   2  -5   5    1.29    0.14
  -2  -5  -5    0.38    0.86
   2   5   5    1.16    0.23
  -2   5  -5    1.57    1.11
  -2   5  -5    1.01    0.19
   2   5   5    0.86    0.79
   3  -5   5    2.32    0.22
  -3  -5  -5    1.49    1.11
   3  -5   5    1.94    0.21
   3   5   5    1.70    0.30
  -3   5  -5    3.49    1.44
   3   5   5    4.17    1.51
  -3   5  -5    2.22    0.24
   4  -5   5    8.56    0.55
   4  -5   5    8.16    0.57
  -4  -5  -5    6.22    2.51
   4  -5   5    8.31    0.49
   4  -5   5    7.53    2.03
  -4   5  -5    7.89    2.67
   4   5   5   13.99    3.51
   4   5   5    7.51    0.66
  -5  -5  -5   10.90    3.30
   5  -5   5   11.62    0.65
   5  -5   5    9.93    2.74
   5  -5   5   12.23    0.75
   5  -5   5   13.34    0.79
   5   5   5   11.63    0.90
   5   5   5   11.16    3.73
  -5   5  -5   16.42    4.08
   6  -5   5    5.09    0.53
   6  -5   5    4.69    0.39
   6  -5   5    2.69    1.65
  -6  -5  -5    4.00    2.88
  -6   5  -5    5.56    2.45
   6   5   5    3.77    2.79
   6   5   5    4.42    0.52
   7  -5   5   11.09    0.76
   7  -5   5   12.25    0.83
  -7  -5  -5    7.43    3.37
   7  -5   5    5.80    4.26
  -7   5  -5    8.58    3.25
   7   5   5   11.67    1.04
   8  -5   5    5.98    0.58
  -8  -5  -5    0.48    2.92
   8  -5   5    5.10    0.51
   8   5   5    3.51    2.96
   8   5   5    4.93    0.79
   8   5   5    5.73    0.89
  -8   5  -5    3.77    3.06
   9  -5   5    0.72    0.23
   9  -5   5    0.71    0.25
  -9  -5  -5    4.75    4.15
   9   5   5    0.03    0.26
   9   5   5   -2.90    2.82
  -9   5  -5   -1.53    2.28
   9   5   5    0.23    0.26
  -9  -6   5    4.17    3.86
   9  -6  -5   -2.04    2.04
   9  -6  -5    0.58    0.21
   9   6  -5    0.96    0.31
  -9   6   5    3.11    2.40
   9   6  -5    1.04    0.31
   9   6  -5    1.85    4.78
  -8  -6   5   -0.88    2.30
   8  -6  -5    0.14    0.10
   8  -6  -5   -0.14    1.56
   8   6  -5    0.12    0.17
  -8   6   5   -2.10    1.02
   8   6  -5    0.26    0.18
   8   6  -5    2.05    3.13
   7  -6  -5   25.26    4.14
   7  -6  -5   24.71    1.14
  -7  -6   5   18.00    7.11
   7   6  -5   17.31    6.51
   7   6  -5   23.83    1.46
   7   6  -5   24.95    1.45
  -7   6   5   27.29    3.60
   6  -6  -5    0.97    0.17
  -6  -6   5    0.98    1.45
   6  -6  -5    1.10    1.09
   6   6  -5    0.80    1.92
   6   6  -5    0.42    0.19
  -6   6   5    1.45    0.87
   6   6  -5    0.42    0.18
   5  -6  -5   15.63    0.72
  -5  -6   5   16.49    4.20
   5  -6  -5   14.61    2.17
   5   6  -5   10.33    3.27
   5   6  -5   15.18    0.95
  -5   6   5   13.38    2.00
  -5   6   5   15.09    0.88
   5   6  -5   13.45    0.95
   4  -6  -5    0.89    0.52
   4  -6  -5    0.41    0.10
  -4  -6   5   -0.07    1.00
   4   6  -5    0.38    0.16
   4   6  -5    0.61    1.09
   4   6  -5    0.41    0.16
  -4   6   5    0.33    0.10
  -4   6   5   -0.02    0.32
   3  -6  -5    2.24    0.20
  -3  -6   5    4.08    1.77
   3   6  -5    2.05    0.33
   3   6  -5    1.88    1.53
   3   6  -5    2.43    0.29
  -3   6   5    2.66    0.22
  -2  -6   5    0.42    0.13
  -2  -6   5    0.27    0.38
   2  -6  -5    0.58    0.12
  -2  -6   5    0.47    0.13
   2   6  -5    0.54    0.13
   2   6  -5   -0.43    0.68
   2   6  -5    0.54    0.16
  -2   6   5    0.79    0.12
  -1  -6   5    1.85    0.21
  -1  -6   5    1.70    0.27
  -1  -6   5    2.00    1.15
   1   6  -5    1.52    0.25
  -1   6   5    2.14    0.19
   1   6  -5    0.59    0.92
   1   6  -5    2.06    0.21
   0  -6  -5   12.09    1.67
   0  -6   5    6.87    2.01
   0  -6   5    9.54    0.55
   0  -6   5    8.60    0.47
   0   6   5    9.08    0.53
   0   6   5    9.43    1.42
   0   6  -5    8.45    0.45
   0   6  -5   11.89    2.73
   0   6  -5    8.58    0.54
  -1  -6  -5    0.03    0.60
   1  -6   5    0.45    0.09
   1  -6   5    0.32    0.11
  -1   6  -5    0.53    0.64
  -1   6  -5    0.01    0.61
   1   6   5    0.21    0.65
   1   6   5    0.46    0.16
  -1   6  -5    0.27    0.07
  -1   6  -5    0.24    0.10
  -2  -6  -5    8.85    2.73
   2  -6   5    8.11    0.47
   2  -6   5    8.52    0.40
  -2   6  -5    8.12    0.51
   2   6   5    8.51    0.58
   2   6   5    6.33    2.14
  -2   6  -5    8.42    2.56
  -2   6  -5    7.39    1.86
   3  -6   5   27.61    1.17
   3  -6   5   36.25    4.07
  -3  -6  -5   32.39    5.11
   3  -6   5   29.84    1.12
  -3   6  -5   33.96    4.68
   3   6   5   28.01    1.42
   3   6   5   33.03    4.79
  -3   6  -5   28.75    1.25
   4  -6   5    0.26    0.09
   4  -6   5    0.14    0.09
   4  -6   5    0.27    0.14
  -4  -6  -5    0.35    1.13
  -4   6  -5    0.87    1.13
   4   6   5    0.20    0.13
   4   6   5    1.19    1.63
  -4   6  -5    0.36    0.12
   5  -6   5    3.81    0.35
   5  -6   5    3.57    1.61
   5  -6   5    3.38    0.36
   5  -6   5    4.52    0.34
  -5  -6  -5    1.95    1.90
   5   6   5    2.56    1.87
  -5   6  -5    2.12    2.05
   5   6   5    4.18    0.51
   6  -6   5    1.46    0.23
  -6  -6  -5   -0.31    1.08
   6  -6   5    1.00    0.22
   6  -6   5    1.08    1.28
   6  -6   5    1.00    0.29
   6   6   5   -0.40    1.47
  -6   6  -5    1.56    1.43
   6   6   5    0.78    0.27
   7  -6   5    3.16    1.82
   7  -6   5    3.96    0.34
   7  -6   5    2.49    0.38
  -7  -6  -5    1.01    2.25
   7  -6   5    2.75    0.33
   7   6   5    4.26    2.58
   7   6   5    2.97    0.55
  -7   6  -5    0.18    1.79
   7   6   5    2.30    0.50
   8  -6   5   -0.66    2.43
   8   6   5    0.59    0.28
  -8   6  -5   -2.53    1.68
   8   6   5   -1.41    2.55
   9  -6   5   16.25    4.42
   9  -6   5   18.81    1.02
  -9  -6  -5   16.72    6.03
   9  -6   5   16.96    1.10
   9   6   5   17.31    1.40
  -9   6  -5   12.37    5.22
   9   6   5   18.77    1.43
   9  -7  -5   12.80    3.90
   9  -7  -5   12.83    0.80
  -9  -7   5    3.92    4.10
   9   7  -5   13.38    1.30
  -9   7   5   13.59    3.33
   9   7  -5    7.48    5.04
   8  -7  -5    3.21    0.36
   8  -7  -5    5.86    3.61
  -8  -7   5    4.95    2.41
  -8   7   5    5.02    3.16
   8   7  -5    4.73    3.79
   8   7  -5    3.23    0.61
   8   7  -5    2.83    0.53
  -7  -7   5    1.63    2.45
   7  -7  -5    2.42    0.28
   7  -7  -5    0.38    1.34
   7   7  -5    0.29    2.46
   7   7  -5    1.84    0.41
   7   7  -5    2.37    0.46
  -7   7   5    1.91    1.32
   6  -7  -5    1.08    0.98
  -6  -7   5    0.41    1.83
   6  -7  -5    0.97    0.18
  -6   7   5    1.65    0.91
   6   7  -5    2.14    2.28
   6   7  -5    0.78    0.30
   6   7  -5    0.94    0.28
   5  -7  -5   10.15    1.50
   5  -7  -5   11.25    0.58
  -5   7   5   11.65    0.67
   5   7  -5   11.86    0.88
  -5   7   5   14.74    1.64
   5   7  -5   11.82    0.82
  -4  -7   5    0.03    0.91
   4  -7  -5    0.21    0.08
   4   7  -5    1.74    1.27
  -4   7   5    0.04    0.07
   4   7  -5    0.34    0.13
   4   7  -5    0.48    0.16
   3  -7  -5   12.27    0.56
  -3  -7   5    9.45    2.72
   3   7  -5   11.64    0.71
   3   7  -5   10.66    0.76
   3   7  -5    9.05    2.79
  -3   7   5   11.93    0.55
  -2  -7   5   13.30    0.80
  -2  -7   5   14.61    0.85
  -2  -7   5   12.42    2.91
   2   7  -5   14.18    0.75
   2   7  -5   13.49    3.16
  -2   7   5   14.47    0.60
   2   7  -5   14.11    0.84
  -1  -7   5    6.52    0.45
  -1  -7   5    3.29    1.37
   1   7  -5    6.28    0.48
   1   7  -5    8.10    2.58
   1   7  -5    5.41    0.38
  -1   7   5    6.07    0.35
   0  -7   5    0.68    0.57
   0  -7  -5    0.21    0.37
   0  -7   5    0.24    0.09
   0  -7   5    0.22    0.08
   0   7   5    0.03    0.08
   0   7  -5   -0.22    0.45
   0   7  -5    0.16    0.10
   0   7  -5    0.15    0.07
   1  -7   5   11.62    0.54
  -1  -7  -5   14.08    2.43
   1  -7   5   11.58    0.62
  -1   7  -5   11.33    0.65
  -1   7  -5   14.18    3.04
  -1   7  -5   12.80    2.77
   1   7   5   12.45    0.75
   1   7   5   11.96    0.66
  -1   7  -5   11.96    0.58
   1   7   5   11.76    2.76
   2  -7   5    2.52    0.23
  -2  -7  -5    2.56    2.09
  -2   7  -5    1.59    0.84
   2   7   5    0.80    0.97
  -2   7  -5    2.20    0.25
   2   7   5    2.91    0.32
   3  -7   5    0.98    0.17
  -3  -7  -5   -1.25    0.98
   3  -7   5    1.00    0.16
   3   7   5    0.91    0.23
  -3   7  -5    1.22    0.24
  -3   7  -5    0.28    0.76
   3   7   5    1.02    0.97
   4  -7   5    4.23    0.31
   4  -7   5    4.70    0.30
   4  -7   5    2.71    1.23
  -4  -7  -5    5.85    2.42
   4  -7   5    4.04    0.34
  -4   7  -5    3.38    1.85
  -4   7  -5    4.57    0.71
   4   7   5    3.17    0.49
   4   7   5    1.13    1.33
   5  -7   5   25.86    3.64
  -5  -7  -5   21.84    4.94
   5  -7   5   24.72    1.01
   5  -7   5   24.81    1.08
   5  -7   5   25.04    1.08
  -5   7  -5   28.21    5.55
   5   7   5   22.95    1.42
   5   7   5   13.74    3.64
   6  -7   5    2.33    1.42
  -6  -7  -5    2.06    2.09
   6  -7   5    3.25    0.35
   6  -7   5    4.69    0.45
   6  -7   5    2.71    0.31
   6  -7   5    3.44    0.30
  -6   7  -5    1.33    1.96
   6   7   5    0.60    2.75
   6   7   5    3.63    0.63
  -7  -7  -5   11.75    4.67
   7  -7   5   14.17    0.76
   7  -7   5   16.24    0.92
   7  -7   5   16.05    4.39
   7   7   5   12.83    4.38
  -7   7  -5    8.66    3.34
   7   7   5   14.70    1.17
   7   7   5   13.65    1.16
   8  -7   5   -1.54    2.12
   8  -7   5    0.26    0.20
  -8  -7  -5    0.67    3.13
  -8   7  -5   -0.86    2.07
   8   7   5    0.12    0.20
   8   7   5    0.35    0.21
  -9  -7  -5   11.07    5.72
   9  -7   5    3.38    3.56
   9  -7   5    4.69    0.50
   9   7   5    1.60    3.72
   9   7   5    4.95    0.89
  -9   7  -5   -1.05    3.05
   9   7   5    5.19    0.95
  -9  -8   5    0.15    6.87
   9  -8  -5    2.34    0.39
   9  -8  -5   -1.00    1.99
   9   8  -5    3.19    0.59
   9   8  -5    2.35    0.52
  -9   8   5    0.79    1.88
   8  -8  -5    0.56    0.19
  -8  -8   5   -1.66    2.64
   8  -8  -5    1.72    1.35
   8   8  -5    0.49    0.24
   8   8  -5    0.99    0.32
  -8   8   5    0.60    1.39
   8   8  -5    2.72    3.85
   7  -8  -5    8.11    2.17
   7  -8  -5    9.91    0.58
  -7  -8   5    6.73    3.16
   7   8  -5    9.49    0.88
  -7   8   5   10.64    2.26
   7   8  -5   10.71    0.87
   7   8  -5    6.64    3.39
   6  -8  -5    0.45    0.13
   6  -8  -5    0.56    0.70
  -6  -8   5    2.51    1.84
  -6   8   5    1.06    0.77
   6   8  -5    0.38    1.77
   6   8  -5    0.93    0.31
  -5  -8   5    2.76    1.75
  -5   8   5    5.33    0.41
   5   8  -5    4.78    0.50
   5   8  -5    5.58    0.61
   5   8  -5    4.82    2.39
  -4  -8   5    2.94    1.91
   4   8  -5    5.96    0.59
   4   8  -5    8.18    3.20
   4   8  -5    6.27    0.54
  -3  -8   5    1.89    1.42
   3   8  -5    3.92    0.39
   3   8  -5    5.12    1.98
   3   8  -5    3.65    0.43
  -2  -8   5    0.08    0.80
  -2  -8   5    1.07    0.24
  -2  -8   5    0.57    0.20
   2   8  -5    0.61    0.16
   2   8  -5   -1.00    0.69
   2   8  -5    0.19    0.12
  -1  -8   5    3.70    1.35
  -1  -8   5    6.23    0.48
  -1  -8   5    6.51    0.47
   1   8  -5    6.10    0.41
   1   8  -5    4.49    1.81
  -1   8   5    6.28    0.36
   1   8  -5    5.71    0.58
   0  -8   5    8.33    0.48
   0  -8  -5    8.71    1.98
   0  -8   5    7.71    0.51
   0   8  -5    8.01    0.45
   0   8  -5    7.68    0.55
   0   8  -5    7.68    2.01
   0   8   5    8.49    0.53
   0   8   5    8.82    2.15
   1  -8   5    1.21    0.14
  -1  -8  -5    0.85    0.80
   1  -8   5    1.10    0.19
  -1   8  -5    1.10    0.18
   1   8   5    0.80    0.21
   1   8   5    0.65    0.89
  -1   8  -5    0.84    0.18
   1   8   5    1.12    0.23
  -1   8  -5    0.65    0.67
  -1   8  -5    0.90    0.84
   2  -8   5    4.95    0.34
  -2  -8  -5    4.83    1.74
  -2   8  -5    7.38    2.14
  -2   8  -5    4.94    0.41
   2   8   5    7.25    1.95
   2   8   5    5.04    0.46
  -2   8  -5    4.54    1.53
  -3  -8  -5    4.25    1.93
   3   8   5    1.57    1.17
   3   8   5    3.86    0.44
  -3   8  -5    2.58    1.21
  -3   8  -5    5.98    2.02
  -3   8  -5    4.11    0.37
  -4  -8  -5   -0.02    1.36
   4   8   5    0.51    0.18
  -4   8  -5    0.31    0.15
   4   8   5   -0.24    1.48
  -5  -8  -5    1.35    1.89
   5  -8   5    0.54    0.94
   5   8   5   -0.32    1.71
  -5   8  -5   -0.80    1.08
   5   8   5    0.87    0.28
  -6  -8  -5    7.41    3.17
   6  -8   5   15.22    0.75
   6  -8   5   13.74    3.24
   6  -8   5   15.37    0.78
  -6   8  -5   14.71    4.22
   6   8   5   15.37    1.78
   6   8   5   14.09    1.20
   6   8   5   10.39    3.44
   7  -8   5   -0.54    1.24
   7  -8   5    0.57    0.18
  -7  -8  -5    3.22    2.66
   7   8   5    0.61    0.23
   7   8   5    0.24    0.24
  -7   8  -5    1.61    2.00
   8  -8   5   12.41    0.76
  -8  -8  -5    7.88    4.98
   8  -8   5   13.16    3.94
   8   8   5   11.50    1.09
   8   8   5   12.35    1.14
   8   8   5    7.59    4.21
   8  -9  -5    7.27    1.90
  -8  -9   5    5.94    4.26
  -8   9   5   11.83    2.67
   8   9  -5    4.29    4.46
   8   9  -5    8.79    0.87
  -7  -9   5    3.71    2.51
   7  -9  -5    0.07    0.65
   7   9  -5    0.34    0.20
   7   9  -5    0.17    2.77
  -7   9   5   -0.06    0.75
   7   9  -5    0.24    0.20
  -6  -9   5    2.87    2.50
   6   9  -5    7.98    3.35
   6   9  -5    5.03    0.61
   6   9  -5    4.63    0.55
  -5  -9   5    1.10    1.68
   5   9  -5    0.59    0.42
   5   9  -5    1.60    0.33
   5   9  -5   -0.95    1.68
  -4  -9   5    5.72    2.33
   4   9  -5    6.83    0.64
   4   9  -5    5.13    2.27
   4   9  -5    5.64    0.52
  -3  -9   5    5.74    2.23
   3   9  -5    4.42    0.48
   3   9  -5    4.04    0.41
   3   9  -5    1.45    1.40
  -2  -9   5    7.58    2.26
   2   9  -5    9.16    0.58
   2   9  -5    9.03    0.68
   2   9  -5    6.78    2.43
  -1  -9   5   -0.07    0.52
  -1  -9   5    0.18    0.11
   1   9  -5    0.12    0.09
   1   9  -5   -0.01    0.08
   1   9  -5   -0.33    0.79
  -1   9   5    0.13    0.06
   0  -9   5    0.15    0.13
   0  -9   5    0.20    0.09
   0   9  -5    0.32    0.14
   0   9   5    0.41    0.14
   0   9  -5    0.18    0.08
   0   9   5   -0.45    0.45
   0   9  -5    0.47    0.73
   0   9   5    0.14    0.10
  -1  -9  -5    0.16    0.70
   1  -9   5    0.04    0.09
  -1   9  -5    0.11    0.07
  -1   9  -5   -0.28    0.49
   1   9   5    0.20    0.13
   1   9   5    0.22    0.69
   1   9   5   -0.11    0.07
  -2  -9  -5    1.10    1.12
   2   9   5    2.06    1.29
  -2   9  -5    3.49    1.75
  -2   9  -5    2.42    0.35
  -2   9  -5    3.22    1.31
   2   9   5    3.05    0.36
  -3  -9  -5    0.70    1.45
  -3   9  -5    1.21    1.04
   3   9   5    1.39    0.32
   3   9   5   -1.01    0.84
  -3   9  -5   -0.31    0.93
  -3   9  -5    1.48    0.27
  -4  -9  -5    6.98    2.87
   4   9   5    5.60    2.35
  -4   9  -5    5.02    2.22
  -4   9  -5    7.38    0.55
   4   9   5    7.18    0.68
  -5  -9  -5    3.70    2.18
  -5   9  -5    0.48    0.17
   5   9   5    0.30    0.19
  -5   9  -5   -0.14    1.38
   5   9   5   -2.33    1.54
   5   9   5    0.26    0.19
  -6  -9  -5    0.92    2.52
   6  -9   5    0.16    0.91
   6   9   5    0.11    0.20
  -6   9  -5    1.26    2.09
   6   9   5   -0.40    0.16
  -7  -9  -5   -1.25    2.72
   7  -9   5    2.54    1.67
   7   9   5    0.52    0.31
   7   9   5   -0.29    2.48
   7   9   5    0.40    0.28
  -7   9  -5   -1.44    2.04
   8  -9   5   18.37    4.43
   8   9   5   11.11    1.09
   8   9   5   12.20    1.15
  -8   9  -5    4.86    3.54
   8  10  -5   13.73    1.16
   8  10  -5   13.04    1.17
  -7 -10   5    3.13    2.87
   7  10  -5    6.62    3.94
   7  10  -5    5.34    0.63
   7  10  -5    5.30    0.66
  -6 -10   5   -0.59    2.50
   6  10  -5    0.68    0.31
   6  10  -5    0.89    0.27
  -5 -10   5    0.71    1.88
   5  10  -5    2.14    2.19
  -4 -10   5    8.00    3.18
   4  10  -5    7.78    3.29
   4  10  -5    5.92    0.64
   4  10  -5    5.78    0.54
  -3 -10   5    1.18    1.46
   3  10  -5    2.72    0.46
   3  10  -5    2.29    0.34
   3  10  -5    2.11    1.73
  -2 -10   5    3.56    1.83
   2  10  -5    2.18    0.51
   2  10  -5    3.21    2.07
   2  10  -5    3.15    0.39
  -1 -10   5    2.71    0.43
  -1 -10   5    2.73    1.40
   1  10  -5    3.00    0.36
   1  10  -5    1.72    1.46
   1  10  -5    2.70    0.27
   0 -10   5    3.35    0.32
   0 -10  -5    4.19    1.10
   0  10  -5    3.84    0.40
   0  10  -5    3.63    0.29
   0  10   5    3.77    0.34
   0  10  -5    0.95    1.35
   0  10   5    4.04    0.35
   0  10   5    4.34    1.28
  -1 -10  -5    7.72    1.88
  -1  10  -5    2.86    2.26
   1  10   5    5.13    1.91
   1  10   5    7.10    0.56
  -1  10  -5    4.47    1.73
  -1  10  -5    6.14    0.51
   1  10   5    6.04    0.50
  -2 -10  -5    2.92    1.63
  -2  10  -5    2.88    0.34
   2  10   5    3.02    0.53
  -2  10  -5    3.06    1.63
  -3 -10  -5    7.09    2.50
  -3  10  -5    8.09    2.62
   3  10   5    6.92    0.65
  -3  10  -5    7.58    0.56
  -4 -10  -5    9.87    3.32
  -4  10  -5    6.72    0.54
  -4  10  -5    7.89    3.02
   4  10   5    6.40    0.67
   4  10   5    6.42    0.67
  -5 -10  -5    2.08    1.83
   5  10   5    1.92    2.06
  -5  10  -5    2.67    2.05
   5  10   5    1.21    0.38
   5  10   5    0.77    0.31
  -5  10  -5    1.37    0.29
  -6 -10  -5    4.04    2.76
  -6  10  -5    7.43    3.12
   6  10   5    6.35    0.77
   6  10   5    8.66    0.85
   6  10   5    6.84    3.68
   7  10   5    0.28    0.24
   7  10   5    0.76    0.27
  -7  10  -5   -0.29    2.18
   8 -10   5   12.20    5.08
   8  10   5   10.93    1.11
  -8  10  -5    8.40    3.87
   8  10   5    9.08    1.00
   7  11  -5    0.13    0.15
   7  11  -5   -0.08    0.16
  -6 -11   5    3.77    2.90
   6  11  -5    3.71    3.41
   6  11  -5    7.47    0.71
   6  11  -5    7.59    0.81
  -5 -11   5    7.18    3.14
   5  11  -5    3.86    0.63
   5  11  -5    5.62    2.92
   5  11  -5    5.49    0.59
   4  11  -5    0.83    0.24
   4  11  -5    0.87    0.26
  -3 -11   5    2.92    1.66
   3  11  -5    5.15    0.47
   3  11  -5    4.78    0.53
  -2 -11   5   -0.39    0.90
   2  11  -5    0.20    0.10
   2  11  -5    0.26    0.14
   2  11  -5    1.34    1.52
  -1 -11   5    4.83    0.42
  -1 -11   5    2.75    1.62
   1  11  -5    2.06    1.41
   1  11  -5    4.66    0.36
   1  11  -5    3.72    0.44
   0 -11  -5    2.63    0.92
   0  11   5    2.71    0.29
   0  11  -5    2.56    0.24
   0  11   5    2.59    0.29
   0  11  -5    4.07    1.59
   0  11   5    3.17    0.32
   0  11   5    2.99    1.15
   0  11  -5    0.94    1.40
   0  11  -5    3.06    0.37
  -1 -11  -5    4.88    1.64
   1  11   5    7.65    2.18
  -1  11  -5    6.32    2.05
   1  11   5    5.55    0.50
  -1  11  -5    6.72    0.54
   1  11   5    6.20    0.51
   1  11   5    6.39    0.53
  -2 -11  -5    0.77    1.12
   2  11   5    1.11    0.27
  -2  11  -5    1.03    1.09
  -2  11  -5    0.89    0.23
   2  11   5    0.28    0.17
  -3 -11  -5    0.44    1.64
   3  11   5    1.75    0.40
  -3  11  -5    0.64    1.25
   3  11   5    2.64    0.45
  -3  11  -5    2.88    0.33
  -4 -11  -5    6.08    3.34
  -4  11  -5    6.50    0.54
   4  11   5    6.57    0.69
  -4  11  -5    2.84    1.92
   4  11   5    5.42    0.65
   4  11   5    6.37    2.58
   5  11   5    0.42    0.20
   5  11   5    0.55    0.25
  -5  11  -5   -1.37    1.96
  -5  11  -5    0.60    0.21
   5  11   5    0.44    2.10
   6  11   5    0.50    0.23
   6  11   5   -0.22    0.18
  -6  11  -5   -0.36    1.93
   7  11   5    4.96    0.80
  -7  11  -5    5.64    4.54
   7  11   5    4.57    0.81
   6  12  -5    0.90    0.29
   6  12  -5    0.92    0.32
   5  12  -5    4.76    0.75
   5  12  -5    5.30    0.56
  -4 -12   5    0.43    1.61
   4  12  -5    0.54    0.25
   4  12  -5    0.51    1.91
   4  12  -5    1.01    0.29
  -3 -12   5    0.60    1.43
   3  12  -5    0.44    0.18
   3  12  -5    0.80    0.25
   3  12  -5    0.04    1.67
  -2 -12   5    0.20    0.19
  -2 -12   5    1.37    1.42
   2  12  -5    1.03    0.28
   2  12  -5    0.92    0.21
   2  12  -5    0.59    1.37
  -1 -12   5    2.25    1.22
   1  12  -5    1.11    1.66
   1  12  -5    2.26    0.42
   1  12  -5    1.06    0.20
   0  12   5    0.17    0.75
   0  12  -5    0.27    0.13
   0  12   5    0.05    0.11
   0  12  -5   -0.15    0.87
  -1 -12  -5    1.88    0.99
   1  12   5    4.06    1.73
  -1  12  -5    2.05    0.34
   1  12   5    1.52    0.28
   1  12   5    2.38    0.42
  -1  12  -5    2.87    1.40
  -2 -12  -5    1.17    1.28
  -2  12  -5    1.55    0.28
   2  12   5    0.91    1.36
   2  12   5    1.42    0.34
   2  12   5    1.61    0.34
  -2  12  -5    2.12    1.62
  -3 -12  -5    3.42    1.93
   3  12   5    3.53    0.55
   3  12   5    3.98    1.77
  -3  12  -5    1.83    1.61
   3  12   5    3.27    0.51
  -3  12  -5    3.46    1.64
  -3  12  -5    3.46    0.40
   4  12   5   -0.13    0.14
  -4  12  -5    0.24    0.12
   4  12   5   -0.03    0.18
  -4  12  -5    0.02    1.43
  -5  12  -5   11.56    0.82
   5  12   5   11.59    0.97
  -5  12  -5    8.57    3.36
   5  12   5   12.88    1.06
   6  12   5   -0.24    0.17
   6  12   5   -0.02    0.20
  -6  12  -5    0.39    2.10
   5  13  -5    0.50    0.26
   5  13  -5    0.66    0.28
   4  13  -5    1.68    0.42
   4  13  -5    2.00    0.37
   3  13  -5    4.97    0.59
   3  13  -5    5.05    0.48
   2  13  -5    0.54    0.14
   2  13  -5    0.23    0.17
   1  13  -5    1.03    0.18
  -1  13   5    1.27    0.22
   1  13  -5    0.55    0.22
   0  13   5    1.65    0.92
   0  13  -5    1.37    1.32
   0  13  -5    1.54    0.29
   0  13   5    1.54    0.29
  -1 -13  -5    0.51    0.88
  -1  13  -5    0.47    0.14
  -1  13  -5   -0.28    1.25
   1  13   5    1.04    1.08
  -2  13  -5    2.82    0.43
   2  13   5    3.49    0.39
  -2  13  -5    2.24    1.65
   2  13   5    2.74    0.52
   3  13   5    2.48    0.46
  -3  13  -5    2.52    0.40
  -3  13  -5    1.10    1.57
   3  13   5    1.35    0.32
   4  13   5    1.92    0.44
  -4  13  -5    2.19    0.39
   4  13   5    2.62    0.53
  -4  13  -5    3.86    1.95
  -5  13  -5    2.66    2.65
   5  13   5    7.19    0.77
   5  13   5    6.31    0.73
  -5  13  -5    6.15    0.59
   4  14  -5    1.19    0.32
   4  14  -5    1.79    0.38
   3  14  -5    0.18    0.21
   3  14  -5    0.62    0.20
   2  14  -5    1.49    0.25
   2  14  -5    1.63    0.35
  -1  14   5    0.31    0.13
   1  14  -5    0.16    0.17
   0  14  -5    3.64    0.45
   0  14   5    4.43    0.43
   0  14  -5    0.07    1.50
  -1  14  -5    4.82    1.97
   1  14   5    1.76    0.26
  -1  14  -5    2.26    0.39
   1  14   5    1.97    0.37
   2  14   5   13.16    0.85
   2  14   5   15.30    1.02
  -2  14  -5   12.27    0.88
  -2  14  -5   11.53    4.25
  -3  14  -5    1.75    0.31
   3  14   5    0.96    0.31
  -3  14  -5    2.29    1.94
   4  14   5    0.19    0.24
  -4  14  -5    0.18    2.22
  -4  14  -5    0.56    0.21
   4  14   5    0.98    0.25
   2  15  -5    4.88    0.44
   2  15  -5    6.90    0.69
   1  15  -5    0.95    0.37
   1  15  -5    0.30    1.61
   0  15   5    1.53    0.33
   0  15  -5    0.10    1.52
   0  15  -5    1.80    0.37
   1  15   5    0.31    0.23
  -1  15  -5    0.63    0.25
  -1  15  -5    0.07    2.60
  -2  15  -5    1.71    0.38
  -2  15  -5    0.41    2.33
   2  15   5    2.80    0.48
   2  15   5    1.71    0.30
  10   0  -6    3.71    0.44
 -10   0   6    5.93    3.32
  10   0  -6    1.14    4.75
  10   0  -6    2.53    0.48
   9   0  -6    2.98    3.28
  -9   0   6    3.73    2.02
   8   0  -6   45.69    1.91
   8   0  -6   40.40    6.97
  -8   0   6   51.53    6.88
   8   0  -6   38.46    2.64
  -7   0   6   -1.57    0.80
   7   0  -6   -1.60    0.99
   7   0  -6   -0.18    0.08
   7   0  -6   -0.03    0.09
   6   0  -6   89.61    3.19
  -6   0   6   85.80    7.70
   6   0  -6   89.78    3.29
   6   0  -6   74.20    7.86
   5   0  -6    0.75    0.97
   5   0  -6    0.08    0.07
   5   0  -6   -0.01    0.06
  -5   0   6   -0.48    0.28
   4   0  -6   34.25    1.42
  -4   0   6   37.32    1.57
  -4   0   6   35.72    1.57
   4   0  -6   35.70    1.50
  -4   0   6   40.27    4.53
   3   0  -6    0.28    0.08
  -3   0   6    0.37    0.32
  -3   0   6    0.47    0.13
   3   0  -6    0.09    0.07
  -2   0   6  232.00    7.31
   2   0  -6  217.45    7.23
   2   0  -6  226.02    7.30
  -2   0   6  213.44    7.31
  -2   0   6  243.31   10.89
  -1   0   6    0.81    0.14
  -1   0   6    0.33    0.28
  -1   0   6    0.92    0.14
   1   0  -6    0.36    0.08
   1   0  -6    0.26    0.50
   0   0  -6   -0.17    0.23
   0   0   6    0.14    0.06
   0   0  -6    0.25    0.08
   0   0   6    0.23    0.07
   0   0  -6    0.13    0.05
   1   0   6    0.04    0.04
   1   0   6    0.69    0.58
   1   0   6    0.07    0.05
  -1   0  -6    0.16    0.29
  -2   0  -6  198.15   11.55
   2   0   6  193.94    6.71
   2   0   6  215.81   11.36
   3   0   6   -0.69    0.46
  -3   0  -6    0.46    0.72
   3   0   6    0.33    0.14
   4   0   6   28.29    1.43
   4   0   6   33.52    4.99
  -4   0  -6   31.30    5.08
   5   0   6   -0.67    0.69
  -5   0  -6   -0.61    1.01
   5   0   6    0.04    0.07
   6   0   6   69.00    2.89
   6   0   6   67.46    7.53
  -6   0  -6   61.12    7.66
  -7   0  -6   -0.59    2.56
   7   0   6    0.35    0.21
   7   0   6    0.48    1.49
   8   0   6   36.29    2.82
  -8   0  -6   29.52    7.17
   8   0   6   42.93    6.99
   9   0   6    0.71    2.59
  -9   0  -6    1.59    3.26
  10   0   6   11.76    4.18
 -10   0  -6   -1.09    3.53
  10   0   6    4.40    0.71
  10   0   6    5.79    0.87
  10  -1  -6    2.11    0.35
 -10  -1   6    1.91    3.24
  10  -1  -6    2.37    0.43
  10   1  -6    2.76    0.47
  10   1  -6    1.67    0.39
  10   1  -6   -4.40    3.76
 -10   1   6    6.21    3.41
   9  -1  -6    2.85    0.49
   9  -1  -6    3.13    0.37
  -9  -1   6    2.61    3.08
   9   1  -6    3.06    0.52
   9   1  -6    6.81    4.61
  -9   1   6    0.81    1.45
  -8  -1   6   14.23    3.82
   8  -1  -6   14.84    0.85
   8  -1  -6   14.86    0.97
   8   1  -6   15.85    1.04
   8   1  -6   14.87    0.94
  -8   1   6   10.39    3.08
   8   1  -6   16.65    4.77
  -7  -1   6   68.15    7.47
   7  -1  -6   71.63    2.68
   7  -1  -6   72.59    2.84
   7   1  -6   70.66    2.81
   7   1  -6   73.83    8.72
  -7   1   6   69.78    7.32
   7   1  -6   72.84    2.91
   6  -1  -6    7.12    0.49
   6  -1  -6    7.64    0.57
   6  -1  -6    6.04    2.37
  -6  -1   6    6.02    2.18
   6   1  -6    7.11    0.56
   6   1  -6   14.11    3.95
  -6   1   6   10.09    2.91
   6   1  -6    7.16    0.59
   5  -1  -6  103.87    3.54
   5  -1  -6  104.87    3.68
  -5  -1   6   95.10    7.81
   5  -1  -6   95.13    8.09
  -5   1   6  102.20    7.62
   5   1  -6  105.43    3.74
   5   1  -6  101.79    8.65
   5   1  -6  105.47    3.69
  -4  -1   6   55.38    5.63
   4  -1  -6   44.28    1.78
   4  -1  -6   53.63    5.59
   4  -1  -6   42.42    1.67
  -4  -1   6   48.61    1.93
  -4   1   6   44.00    1.86
  -4   1   6   47.31    1.85
   4   1  -6   46.38    1.84
   4   1  -6   51.39    5.85
  -4   1   6   47.49    4.81
   4   1  -6   43.21    1.78
   3  -1  -6   82.84    2.96
  -3  -1   6   90.62    6.68
  -3  -1   6   89.91    3.19
   3  -1  -6   88.21    3.08
   3  -1  -6   99.26    6.95
   3   1  -6   86.53    3.12
  -3   1   6  100.49    6.34
   3   1  -6   86.37    3.09
   3   1  -6   95.06    7.35
  -3   1   6   89.83    3.14
  -3   1   6   86.86    3.08
   2  -1  -6    6.37    0.32
   2  -1  -6    6.46    0.39
  -2  -1   6    6.38    0.41
  -2  -1   6    5.60    0.39
   2  -1  -6    4.88    1.29
  -2  -1   6    4.51    1.42
   2   1  -6    6.27    0.40
   2   1  -6    6.06    0.38
  -2   1   6    6.44    0.40
  -2   1   6    6.38    0.37
  -2   1   6    7.08    1.60
   2   1  -6    6.45    1.94
  -1  -1   6  132.98    7.07
  -1  -1   6  115.66    4.00
   1  -1  -6  129.96    6.51
   1  -1  -6  114.50    3.99
  -1  -1   6  122.72    4.01
  -1   1   6  119.67    4.00
   1   1  -6  111.85    3.96
   1   1  -6  130.77    7.21
  -1   1   6  120.94    3.94
   1   1  -6  117.66    4.00
   0  -1  -6   62.49    4.26
   0  -1  -6   56.40    2.07
   0  -1   6   54.83    2.00
   0  -1   6   56.38    2.01
   0   1   6   57.13    2.04
   0   1   6   61.62    4.16
   0   1   6   54.47    1.95
   0   1  -6   65.07    4.57
   0   1  -6   53.06    1.98
   0   1  -6   61.86    4.91
  -1  -1  -6  112.81    4.18
  -1  -1  -6  137.86    7.89
   1  -1   6  116.38    4.02
   1  -1   6  117.53    4.07
   1  -1   6  126.93    7.35
   1   1   6  131.73    7.45
  -1   1  -6  135.60    7.78
  -1   1  -6  117.09    4.01
   1   1   6  119.85    4.15
  -1   1  -6  118.68    4.14
   2  -1   6    4.62    0.33
  -2  -1  -6    6.31    2.11
   2  -1   6    6.20    1.88
   2  -1   6    4.83    0.39
   2   1   6    3.96    1.43
  -2   1  -6    5.48    1.75
   2   1   6    4.00    0.39
  -3  -1  -6   98.89    8.42
   3  -1   6   99.85    7.76
   3  -1   6   84.87    3.31
   3  -1   6   89.66    3.35
  -3   1  -6   89.59    7.96
   3   1   6   93.18    7.74
  -4  -1  -6   46.40    6.14
   4  -1   6   43.40    1.71
   4  -1   6   41.97    7.15
   4  -1   6   38.76    1.82
  -4   1  -6   45.97    9.48
   4   1   6   42.12    1.88
   4   1   6   42.74    5.63
   5  -1   6  111.29    4.02
  -5  -1  -6   96.10    9.19
   5  -1   6  116.48    9.25
  -5   1  -6   85.17    8.76
   5   1   6  107.64    9.23
   5   1   6  107.00    4.04
  -6  -1  -6    2.42    1.81
   6  -1   6    3.00    1.96
   6  -1   6    4.73    0.52
   6   1   6    5.14    2.21
   6   1   6    3.88    0.49
  -6   1  -6    6.18    2.65
   7  -1   6   60.55    7.76
  -7  -1  -6   60.02    8.12
   7  -1   6   72.08    3.00
   7   1   6   77.76    8.63
  -7   1  -6   71.79    8.57
   7   1   6   68.82    3.04
   8  -1   6   11.94    4.20
  -8  -1  -6    5.89    3.39
   8  -1   6    8.38    0.79
   8   1   6    2.87    2.73
   8   1   6    9.41    0.87
  -8   1  -6    3.40    2.72
  -9  -1  -6   10.39    4.50
   9  -1   6    1.15    2.64
   9  -1   6    3.22    0.60
   9  -1   6    3.20    0.62
   9   1   6    5.04    3.42
   9   1   6    1.71    0.48
  -9   1  -6   -0.11    3.07
   9   1   6    1.75    0.45
  10  -1   6    1.49    0.46
  10  -1   6    1.82    0.41
 -10  -1  -6    1.71    4.46
  10  -1   6    3.43    4.16
  10   1   6    1.93    0.53
  10   1   6    1.60    4.34
  10   1   6    2.34    0.47
 -10   1  -6    1.45    3.59
 -10  -2   6   -1.56    2.48
  10  -2  -6    2.50    0.35
  10  -2  -6    2.63    0.46
  10  -2  -6   -4.29    4.64
 -10   2   6    1.30    2.58
  10   2  -6    2.76    0.48
  10   2  -6    2.19    0.49
  10   2  -6   11.72    6.10
   9  -2  -6   -0.01    0.11
   9  -2  -6    0.06    0.13
  -9  -2   6   -2.88    1.82
   9  -2  -6   -3.00    2.69
   9   2  -6   -0.15    0.14
   9   2  -6    2.15    3.40
   9   2  -6   -0.02    0.14
  -9   2   6   -0.60    2.03
   8  -2  -6   -0.23    1.71
   8  -2  -6    0.04    0.10
  -8  -2   6   -1.98    1.07
   8  -2  -6   -0.01    0.09
   8   2  -6    0.00    0.11
  -8   2   6   -0.09    1.61
   8   2  -6   -0.04    0.08
   8   2  -6   -1.84    2.04
  -7  -2   6   13.92    3.69
   7  -2  -6    9.68    2.95
   7  -2  -6   13.62    0.71
   7  -2  -6   13.89    0.86
   7   2  -6   12.78    4.61
  -7   2   6   17.37    4.18
   7   2  -6   13.58    0.93
   7   2  -6   13.08    0.88
   6  -2  -6   84.69    3.11
   6  -2  -6   73.43    7.65
  -6  -2   6   74.74    8.47
   6  -2  -6   85.22    2.91
   6   2  -6   86.86    3.25
   6   2  -6   82.36    9.64
  -6   2   6   81.18    7.11
   6   2  -6   84.44    3.19
   5  -2  -6   12.42    0.71
  -5  -2   6    7.00    2.05
   5  -2  -6   11.94    0.58
   5  -2  -6   10.39    2.65
  -5   2   6   17.11    2.69
   5   2  -6   11.69    0.75
   5   2  -6   12.09    3.41
   5   2  -6   12.52    0.78
  -5   2   6   12.78    0.77
   4  -2  -6   15.66    3.48
   4  -2  -6    9.75    0.59
  -4  -2   6   12.10    3.25
   4  -2  -6   10.94    0.48
  -4   2   6   12.71    2.77
   4   2  -6   10.40    0.65
  -4   2   6   11.15    0.63
  -4   2   6    9.40    0.63
   4   2  -6   11.54    0.69
   4   2  -6   11.60    3.12
  -3  -2   6    1.51    0.25
   3  -2  -6    1.34    0.19
  -3  -2   6    1.59    0.27
  -3  -2   6    0.74    0.84
   3  -2  -6    0.97    0.73
  -3   2   6    1.69    0.20
  -3   2   6    1.82    0.85
   3   2  -6    1.58    0.26
  -3   2   6    1.43    0.17
   3   2  -6    0.66    0.89
   3   2  -6    1.03    0.19
  -2  -2   6    0.39    0.11
  -2  -2   6    0.50    0.13
   2  -2  -6    0.39    0.45
  -2  -2   6    0.33    0.48
   2  -2  -6    0.88    0.15
  -2   2   6    1.44    0.65
   2   2  -6    0.99    0.18
   2   2  -6    0.93    0.17
   2   2  -6    0.70    0.64
  -2   2   6    0.70    0.14
  -2   2   6    0.85    0.11
  -1  -2   6   15.05    2.19
  -1  -2   6   13.61    0.65
   1  -2  -6   14.51    1.63
   1  -2  -6   14.84    1.69
  -1  -2   6   14.07    0.68
   1  -2  -6   13.77    0.64
  -1   2   6   13.16    0.55
   1   2  -6   13.80    0.64
  -1   2   6   13.04    0.62
   1   2  -6   13.77    2.14
   1   2  -6   12.42    0.63
   0  -2   6    0.08    0.05
   0  -2   6    0.13    0.06
   0  -2  -6    0.15    0.08
   0  -2  -6    0.29    0.34
   0   2  -6    0.22    0.07
   0   2   6    0.26    0.09
   0   2  -6    0.11    0.06
   0   2   6    0.17    0.35
   0   2  -6    1.03    0.63
   0   2  -6   -0.19    0.30
   1  -2   6   15.04    0.69
  -1  -2  -6   13.62    2.30
  -1  -2  -6   14.73    0.82
   1  -2   6   18.04    2.49
   1  -2   6   15.68    0.70
  -1   2  -6   14.50    0.73
   1   2   6   15.41    2.28
   1   2   6   14.21    0.77
  -1   2  -6   13.73    0.67
  -1   2  -6   16.38    2.46
  -2  -2  -6    0.62    0.67
   2  -2   6    1.99    0.21
   2  -2   6    0.98    0.74
   2  -2   6    2.27    0.24
  -2   2  -6    0.91    0.79
   2   2   6    2.13    0.35
   2   2   6    1.66    1.16
  -2   2  -6    2.10    0.21
   3  -2   6    2.04    1.11
  -3  -2  -6    1.36    1.34
   3  -2   6    1.73    0.30
   3   2   6    2.38    1.22
  -3   2  -6    2.38    1.19
  -4  -2  -6   16.30    4.32
   4  -2   6   19.87    4.30
   4  -2   6   13.48    0.86
   4  -2   6   13.68    0.74
   4  -2   6   14.04    0.86
  -4   2  -6   15.77    4.26
   4   2   6   17.51    4.45
   4   2   6   13.17    0.89
  -5  -2  -6   10.19    3.05
   5  -2   6    6.10    2.29
   5  -2   6    9.25    0.71
  -5   2  -6    6.70    2.46
   5   2   6    7.53    2.65
   5   2   6    8.91    0.74
   6  -2   6   85.33    3.28
  -6  -2  -6   78.21    8.98
   6  -2   6   81.25    8.16
   6   2   6   83.08    3.39
   6   2   6   77.06    8.35
  -6   2  -6   65.05    8.24
  -7  -2  -6   16.43    5.27
   7  -2   6   12.60    3.81
   7  -2   6   15.56    1.07
  -7   2  -6   15.13    4.25
   7   2   6   17.99    1.22
   7   2   6   17.47    5.50
   8  -2   6    0.48    0.21
   8  -2   6    0.21    2.14
  -8  -2  -6   -2.01    2.16
   8   2   6    0.89    2.49
  -8   2  -6   -0.26    2.64
   8   2   6    0.00    0.17
   9  -2   6    0.69    0.26
   9  -2   6    0.53    3.29
   9  -2   6    0.17    0.16
  -9   2  -6    5.22    3.45
   9   2   6    0.58    0.30
   9   2   6    0.19    0.21
 -10  -2  -6   -0.60    3.11
  10  -2   6   -1.80    3.73
  10  -2   6    1.24    0.37
  10  -2   6    2.78    0.57
  10   2   6    1.38    0.52
  10   2   6    5.85    4.91
 -10   2  -6    1.09    3.62
  10   2   6    1.73    0.53
  10  -3  -6    5.29    0.60
 -10  -3   6    1.83    2.98
  10   3  -6    5.69    0.69
  10   3  -6    9.47    6.07
 -10   3   6    6.45    3.71
  10   3  -6    4.04    0.62
   9  -3  -6    2.85    0.48
  -9  -3   6    1.31    2.39
   9   3  -6    4.26    0.65
   9   3  -6    2.24    3.65
   9   3  -6    3.32    0.52
  -8  -3   6   16.97    4.86
   8  -3  -6   19.40    0.84
   8  -3  -6   13.08    4.38
   8  -3  -6   20.76    1.13
   8   3  -6   20.90    1.27
  -8   3   6   17.22    4.18
   8   3  -6   18.86    1.23
   8   3  -6   12.56    4.82
   7  -3  -6   62.57    7.44
   7  -3  -6   63.72    2.53
  -7  -3   6   65.38    7.67
   7   3  -6   57.44    7.88
   7   3  -6   66.99    2.72
   7   3  -6   66.40    2.74
  -7   3   6   54.72    6.29
   6  -3  -6    0.87    1.47
   6  -3  -6    1.60    0.28
  -6  -3   6    2.37    1.47
   6   3  -6    1.82    0.36
   6   3  -6    2.01    0.38
  -6   3   6    2.42    1.29
   6   3  -6    1.48    1.15
   5  -3  -6  208.06    6.72
  -5  -3   6  196.43   12.63
   5  -3  -6  187.79   16.36
  -5   3   6  183.76   13.61
   5   3  -6  205.29    6.90
  -5   3   6  213.43    6.82
   5   3  -6  183.18   12.95
   5   3  -6  208.56    6.91
  -4  -3   6    3.58    1.61
   4  -3  -6    3.83    2.48
   4  -3  -6    2.62    0.27
   4   3  -6    3.44    0.58
  -4   3   6    4.99    2.02
  -4   3   6    3.73    0.31
  -4   3   6    3.30    0.32
   4   3  -6    3.23    0.34
   4   3  -6    1.55    1.38
  -3  -3   6   79.01    6.65
  -3  -3   6   66.86    2.56
   3  -3  -6   65.82    2.38
  -3  -3   6   67.51    2.59
   3  -3  -6   69.73    5.19
  -3   3   6   73.40    4.60
   3   3  -6   71.12    6.71
  -3   3   6   68.72    2.43
   3   3  -6   64.68    2.51
  -3   3   6   66.83    2.33
   3   3  -6   63.97    2.49
   2  -3  -6   25.50    1.04
  -2  -3   6   25.34    1.13
  -2  -3   6   28.25    3.48
   2  -3  -6   28.47    2.58
   2   3  -6   25.78    1.11
   2   3  -6   22.55    3.30
  -2   3   6   27.86    2.26
  -2   3   6   26.14    0.94
   2   3  -6   25.80    1.14
  -2   3   6   26.36    1.05
  -1  -3   6   16.26    0.77
   1  -3  -6   16.61    0.77
   1  -3  -6   18.97    1.80
   1  -3  -6   19.24    1.78
  -1  -3   6   17.12    0.82
  -1  -3   6   20.32    2.71
   1   3  -6   16.10    0.76
  -1   3   6   17.23    0.75
   1   3  -6   18.64    2.66
   1   3  -6   17.31    0.81
   0  -3  -6  233.92   10.33
   0  -3  -6  211.01    7.36
   0  -3   6  220.14    7.30
   0  -3   6  222.61    7.23
   0   3  -6  256.19   11.53
   0   3   6  218.04    7.31
   0   3   6  241.37    9.99
   0   3  -6  213.79    7.25
   0   3  -6  219.68    7.28
   1  -3   6   18.74    0.78
  -1  -3  -6   17.19    2.63
   1  -3   6   17.22    0.79
  -1   3  -6   17.12    0.79
  -1   3  -6   21.73    2.90
  -1   3  -6   17.24    0.82
   1   3   6   20.27    2.71
   1   3   6   17.84    0.91
   2  -3   6   26.48    1.10
   2  -3   6   25.73    1.11
   2  -3   6   29.15    3.53
  -2   3  -6   27.18    1.12
  -2   3  -6   25.53    1.21
  -2   3  -6   27.29    3.72
   2   3   6   26.72    1.30
   2   3   6   30.65    3.88
   3  -3   6   53.33    2.16
  -3  -3  -6   60.77    6.68
   3  -3   6   54.11    2.09
   3  -3   6   64.10    5.84
  -3   3  -6   58.48    6.23
   3   3   6   67.26    6.74
   4  -3   6    2.68    0.28
   4  -3   6    3.57    1.74
   4  -3   6    3.52    0.50
  -4  -3  -6    2.34    1.66
   4  -3   6    2.85    0.33
   4   3   6    2.86    1.59
  -4   3  -6    1.81    1.36
   4   3   6    3.61    0.61
   5  -3   6  171.84    6.30
  -5  -3  -6  167.74   12.89
   5  -3   6  173.94   11.63
   5  -3   6  181.38    6.20
  -5   3  -6  173.56   12.80
   5   3   6  171.17   12.55
   5   3   6  189.89    6.40
   6  -3   6    1.27    1.10
  -6  -3  -6    1.41    1.45
   6   3   6    0.68    0.23
   6   3   6   -0.36    1.41
  -6   3  -6   -0.27    1.17
  -7  -3  -6   60.20    8.45
   7  -3   6   61.90    2.63
   7  -3   6   70.03    7.93
   7   3   6   58.96    7.90
  -7   3  -6   53.28    7.49
   7   3   6   59.90    2.81
   8  -3   6   17.62    1.22
   8  -3   6   26.72    6.10
   8  -3   6   20.47    1.25
  -8  -3  -6   21.05    5.56
   8   3   6   25.24    6.09
  -8   3  -6   17.92    4.77
   8   3   6   20.96    1.45
   9  -3   6    3.59    0.59
  -9  -3  -6   -0.18    3.36
   9  -3   6    4.11    0.64
   9  -3   6    0.56    2.78
   9   3   6    3.92    3.96
   9   3   6    5.97    0.72
   9   3   6    4.35    0.72
  -9   3  -6    6.04    4.12
  10  -3   6    5.61    0.80
  10  -3   6    7.00    0.72
 -10  -3  -6    3.97    4.25
  10   3   6    7.82    1.23
 -10   3  -6    7.27    6.62
  10   3   6   15.22    5.75
  10   3   6    8.79    0.95
  10  -4  -6    0.55    0.19
 -10  -4   6   -3.01    2.65
  10   4  -6    0.92    0.29
  10   4  -6   -4.12    4.50
  10   4  -6   -0.13    0.19
   9  -4  -6   17.21    5.18
   9  -4  -6   32.09    1.54
   9   4  -6   29.41    1.71
  -9   4   6   33.25    5.56
   9   4  -6   31.54    1.72
   9   4  -6   23.38    6.73
   8  -4  -6    8.45    3.26
  -8  -4   6    7.74    2.97
   8  -4  -6    8.71    0.65
   8   4  -6    8.80    0.79
  -8   4   6    6.57    2.69
   8   4  -6    2.61    3.43
   8   4  -6    9.04    0.81
   7  -4  -6   15.30    4.02
   7  -4  -6   11.68    0.75
  -7  -4   6   10.06    3.09
   7   4  -6    9.57    3.49
   7   4  -6   12.24    1.00
  -7   4   6   11.86    2.94
   7   4  -6   12.11    0.90
  -6  -4   6   -0.36    1.15
   6  -4  -6    0.17    0.09
   6  -4  -6    1.28    1.27
   6   4  -6    0.03    0.11
   6   4  -6    0.26    0.14
  -6   4   6    0.68    0.74
   6   4  -6   -0.90    0.77
   5  -4  -6   10.68    0.62
   5  -4  -6   10.61    2.64
  -5  -4   6    9.35    2.70
  -5   4   6   13.21    0.77
  -5   4   6    8.55    2.06
   5   4  -6   10.44    0.74
  -5   4   6   11.59    0.69
   5   4  -6   11.07    0.78
   5   4  -6    9.23    3.18
   4  -4  -6    6.92    0.44
   4  -4  -6    5.07    1.64
  -4  -4   6    7.14    2.67
  -4   4   6    8.25    1.83
   4   4  -6    5.98    2.49
   4   4  -6    7.34    0.57
   4   4  -6    7.49    0.56
  -4   4   6    7.90    0.54
  -4   4   6    7.97    0.46
   3  -4  -6    7.29    1.77
  -3  -4   6    5.90    2.12
   3  -4  -6    6.30    0.39
  -3  -4   6    6.58    0.67
   3   4  -6    6.16    0.49
   3   4  -6    6.30    0.47
   3   4  -6    5.15    1.91
  -3   4   6    6.93    0.35
  -3   4   6    5.44    1.21
  -3   4   6    6.31    0.41
   2  -4  -6    9.65    1.05
  -2  -4   6    8.19    2.21
  -2  -4   6    9.56    0.61
   2  -4  -6    9.34    0.50
   2  -4  -6   10.86    1.30
  -2  -4   6    8.85    0.67
   2   4  -6    9.82    0.56
  -2   4   6    9.23    0.49
   2   4  -6    8.48    2.43
   2   4  -6    8.63    0.57
  -1  -4   6  260.81   12.93
  -1  -4   6  258.73    8.51
  -1  -4   6  247.96    8.42
   1  -4  -6  271.55   10.24
   1  -4  -6  250.01    8.43
   1  -4  -6  290.57    9.97
   1   4  -6  245.77    8.39
  -1   4   6  257.45    8.38
   1   4  -6  253.71    8.49
   1   4  -6  281.68   13.51
   0  -4  -6    0.63    0.44
   0  -4   6    0.24    0.07
   0   4   6    0.30    0.09
   0   4   6    0.19    0.42
   0   4  -6   -0.15    0.49
  -1  -4  -6  241.48   12.39
   1  -4   6  233.60    7.80
   1  -4   6  236.80    7.72
  -1   4  -6  250.18   12.41
  -1   4  -6  253.67   12.17
  -1   4  -6  229.02    7.79
   1   4   6  254.90   12.08
  -1   4  -6  239.41    7.81
   1   4   6  236.21    7.96
   2  -4   6   12.29    2.65
  -2  -4  -6    8.59    2.51
   2  -4   6    8.67    0.50
   2  -4   6    8.77    0.48
   2   4   6    9.56    0.71
  -2   4  -6    8.31    0.57
  -2   4  -6    8.15    0.50
  -2   4  -6    9.73    2.62
   2   4   6    8.32    2.47
   3  -4   6    6.64    0.43
   3  -4   6    7.05    2.21
  -3  -4  -6    7.46    2.78
   3  -4   6    5.71    0.42
  -3   4  -6    4.04    1.92
   3   4   6    6.35    0.53
  -3   4  -6    6.07    0.44
   3   4   6    5.84    2.23
   4  -4   6    6.97    0.53
   4  -4   6    6.20    0.53
  -4  -4  -6    5.14    2.54
   4  -4   6    5.83    1.92
   4  -4   6    7.54    0.48
   4   4   6    6.86    0.61
   4   4   6    9.97    3.27
  -4   4  -6   11.81    3.56
   5  -4   6   10.01    0.81
   5  -4   6    9.93    0.72
  -5  -4  -6    8.05    2.76
   5  -4   6   11.66    0.74
   5  -4   6    6.93    2.24
   5   4   6   11.31    0.86
   5   4   6   10.74    3.10
  -5   4  -6    7.68    2.82
   6  -4   6    0.20    0.15
   6  -4   6   -1.78    0.95
  -6  -4  -6   -1.84    1.06
   6   4   6   -0.31    1.23
   6   4   6    0.35    0.19
  -6   4  -6    1.32    1.17
   7  -4   6    7.78    2.95
   7  -4   6    8.66    0.71
   7   4   6    4.95    3.42
   7   4   6    8.36    1.63
  -7   4  -6   13.26    4.84
   8  -4   6    5.95    0.62
   8  -4   6    7.03    0.65
   8  -4   6    6.88    3.25
  -8  -4  -6    5.75    3.53
  -8   4  -6    2.76    2.62
   8   4   6    6.83    0.78
   8   4   6    3.45    3.05
   8   4   6    6.47    0.78
  -9  -4  -6   17.65    5.86
   9  -4   6   23.19    1.35
   9  -4   6   22.70    6.21
   9  -4   6   22.36    1.40
   9   4   6   22.54    1.62
   9   4   6   15.72    6.28
   9   4   6   25.14    1.66
  -9   4  -6   19.16    5.08
  10  -4   6    0.01    0.23
  10  -4   6   -0.12    0.21
 -10  -4  -6   -2.36    4.19
  10   4   6    0.45    0.28
  10   4   6    0.57    0.33
  10   4   6   -0.96    4.66
   9  -5  -6    7.10    3.93
  -9  -5   6   -0.27    3.19
  -9   5   6    6.59    2.78
   9   5  -6    8.77    0.83
   9   5  -6    8.82    0.83
   8  -5  -6   23.10    5.23
   8  -5  -6   19.76    1.08
  -8  -5   6   15.74    4.36
   8   5  -6   18.46    5.92
   8   5  -6   21.39    1.34
  -8   5   6   18.76    3.89
   8   5  -6   20.94    1.33
   7  -5  -6    2.11    0.32
   7  -5  -6    4.10    2.19
  -7  -5   6    1.02    1.89
   7   5  -6    2.38    0.51
   7   5  -6    5.72    3.11
   7   5  -6    2.29    0.46
  -7   5   6    1.90    1.28
   6  -5  -6    1.35    1.54
   6  -5  -6    3.37    0.32
  -6  -5   6    4.20    2.49
   6   5  -6    0.05    1.63
  -6   5   6    1.40    1.04
   6   5  -6    2.48    0.40
   6   5  -6    3.90    0.46
   5  -5  -6    0.25    0.11
   5  -5  -6   -0.15    0.67
  -5  -5   6    1.05    1.21
  -5   5   6    0.65    0.18
  -5   5   6    0.43    0.16
   5   5  -6    0.42    0.16
   5   5  -6   -0.89    0.88
   5   5  -6    0.30    0.16
  -5   5   6   -0.37    0.54
   4  -5  -6   26.16    2.82
   4  -5  -6   24.08    1.04
  -4  -5   6   21.82    3.67
   4   5  -6   25.84    1.25
   4   5  -6   24.34    1.28
  -4   5   6   26.07    1.05
  -4   5   6   25.93    1.14
  -4   5   6   27.04    2.38
   3  -5  -6   42.18    1.62
   3  -5  -6   48.57    3.27
  -3  -5   6   49.89    5.59
   3   5  -6   41.14    1.77
   3   5  -6   43.06    1.85
  -3   5   6   41.67    1.63
  -3   5   6   46.86    2.62
   3   5  -6   49.56    5.82
  -2  -5   6   23.55    1.16
  -2  -5   6   24.51    1.13
  -2  -5   6   24.81    3.51
   2  -5  -6   23.99    1.00
   2   5  -6   23.74    1.14
  -2   5   6   24.81    0.98
   2   5  -6   23.04    1.06
   2   5  -6   27.82    3.91
  -1  -5   6    1.40    0.22
   1  -5  -6    1.71    0.42
  -1  -5   6    1.10    0.25
   1  -5  -6    1.21    0.20
   1  -5  -6    0.65    0.37
  -1  -5   6    0.84    0.71
   1   5  -6    1.12    0.18
   1   5  -6    1.06    0.92
  -1   5   6    1.29    0.19
   1   5  -6    1.63    0.27
   0  -5  -6  276.93   11.80
   0  -5   6  252.65    8.37
   0  -5   6  263.11    8.49
   0   5   6  274.30   11.14
   0   5   6  259.91    8.48
   0   5  -6  250.61    8.47
   0   5  -6  244.18    8.36
   0   5  -6  270.14   13.26
   1  -5   6    1.89    0.22
   1  -5   6    1.90    0.18
  -1  -5  -6    1.13    1.02
  -1   5  -6    2.07    0.24
   1   5   6    2.13    0.33
  -1   5  -6    0.80    0.83
  -1   5  -6    2.32    1.10
   1   5   6    1.81    0.93
  -1   5  -6    2.20    0.22
   2  -5   6   27.04    1.05
  -2  -5  -6   21.70    3.74
   2  -5   6   25.89    1.11
  -2   5  -6   30.65    4.02
   2   5   6   29.21    4.02
  -2   5  -6   24.93    1.18
  -2   5  -6   26.84    1.15
   2   5   6   27.30    1.36
   3  -5   6   47.81    1.80
  -3  -5  -6   49.01    6.08
   3  -5   6   47.28    1.78
  -3   5  -6   47.11    1.86
   3   5   6   52.08    6.14
   3   5   6   45.16    2.01
  -3   5  -6   54.17    6.07
   4  -5   6   25.50    1.17
  -4  -5  -6   27.18    5.46
   4  -5   6   23.56    1.21
   4  -5   6   28.67    1.15
   4   5   6   25.01    1.38
   4   5   6   24.26    4.08
  -4   5  -6   22.66    3.74
   5  -5   6    0.35    0.14
   5  -5   6    0.70    0.20
   5  -5   6    0.40    0.13
  -5  -5  -6   -0.57    2.02
   5   5   6    0.44    0.23
  -5   5  -6   -0.87    0.76
   5   5   6   -1.22    1.44
  -6  -5  -6    1.22    1.87
   6  -5   6    4.20    0.44
  -6   5  -6    4.46    1.98
   6   5   6    6.01    2.76
   6   5   6    4.55    0.56
   7  -5   6    2.26    0.40
   7  -5   6    0.11    1.91
  -7  -5  -6    6.82    3.26
   7   5   6    0.46    1.96
  -7   5  -6    3.67    2.34
   7   5   6    3.67    0.66
  -8  -5  -6   24.59    6.39
   8  -5   6   23.40    1.33
   8  -5   6   22.11    1.26
   8   5   6   23.08    1.58
   8   5   6   23.91    6.46
  -8   5  -6   21.81    6.13
   8   5   6   23.22    1.62
   9  -5   6    5.90    0.58
   9  -5   6   -0.01    3.23
   9  -5   6    6.73    1.13
  -9  -5  -6    5.33    4.49
  -9   5  -6    4.57    3.34
   9   5   6    5.25    0.82
   9   5   6   -1.03    3.88
   9   5   6    4.83    0.77
  -9  -6   6    9.74    4.48
   9  -6  -6    5.36    0.49
   9  -6  -6    3.09    3.06
   9   6  -6    6.16    0.69
  -9   6   6    4.94    2.76
   9   6  -6   -0.47    3.60
   9   6  -6    4.39    0.68
   8  -6  -6    2.10    0.34
  -8  -6   6    3.92    2.93
   8  -6  -6    1.00    1.67
  -8   6   6    1.49    1.53
   8   6  -6    0.38    2.86
   8   6  -6    2.14    0.43
   8   6  -6    2.60    0.53
   7  -6  -6   26.85    4.23
  -7  -6   6   23.25    5.96
   7  -6  -6   27.52    1.26
   7   6  -6   30.70    1.66
  -7   6   6   29.98    3.96
   7   6  -6   28.50    1.57
   7   6  -6   21.27    6.05
  -6  -6   6   -2.21    1.22
   6  -6  -6    0.43    0.13
   6  -6  -6    0.12    1.02
  -6   6   6    0.67    0.99
   6   6  -6    0.36    0.14
   6   6  -6    0.53    0.21
  -5  -6   6   20.47    4.58
   5  -6  -6   15.38    0.75
   5  -6  -6   15.00    2.20
  -5   6   6   15.83    0.94
   5   6  -6   15.97    3.95
   5   6  -6   13.96    0.93
  -5   6   6   13.55    1.92
  -5   6   6   15.99    0.86
   5   6  -6   16.69    1.05
   4  -6  -6    6.98    1.32
   4  -6  -6    6.09    0.38
  -4  -6   6    4.51    1.90
   4   6  -6    5.84    0.54
  -4   6   6    5.55    0.41
   4   6  -6    4.43    2.49
  -4   6   6    4.93    0.84
   4   6  -6    5.00    0.47
  -3  -6   6   41.51    4.92
   3  -6  -6   45.94    1.68
   3   6  -6   42.75    5.12
   3   6  -6   41.63    2.00
  -3   6   6   47.32    1.69
   3   6  -6   47.88    1.97
   2  -6  -6    2.92    0.27
  -2  -6   6    3.56    1.71
  -2  -6   6    2.92    0.32
  -2  -6   6    2.75    0.33
   2   6  -6    3.32    1.59
  -2   6   6    3.18    0.24
   2   6  -6    3.73    0.33
  -1  -6   6   64.45    2.42
  -1  -6   6   64.63    5.85
   1  -6  -6   61.49    2.34
  -1  -6   6   62.18    2.32
  -1   6   6   62.96    2.24
   1   6  -6   62.27    2.27
   1   6  -6   71.18    6.42
   1   6  -6   64.52    2.42
   0  -6  -6    0.86    0.47
   0  -6   6    0.16    0.10
   0  -6   6    0.23    0.09
   0   6  -6    0.34    0.11
   0   6   6    0.52    0.38
   0   6  -6    0.22    0.07
   0   6   6    0.11    0.08
   0   6  -6    0.31    0.57
   1  -6   6   60.91    2.12
   1  -6   6   59.21    2.23
  -1  -6  -6   66.54    5.71
  -1   6  -6   64.04    5.74
  -1   6  -6   59.42    2.19
  -1   6  -6   59.73    2.26
   1   6   6   59.92    2.38
   1   6   6   60.26    5.23
  -1   6  -6   65.96    5.65
   2  -6   6    2.97    0.27
  -2  -6  -6    3.86    1.78
   2  -6   6    3.17    0.23
   2   6   6    6.18    2.16
   2   6   6    2.70    0.32
  -2   6  -6    2.64    0.28
   2   6   6    2.64    0.39
  -2   6  -6    2.93    1.50
  -2   6  -6    3.47    0.33
  -2   6  -6    2.32    1.14
   3  -6   6   37.14    4.01
   3  -6   6   40.76    1.54
  -3  -6  -6   34.79    5.21
   3  -6   6   40.63    1.47
   3   6   6   36.55    5.18
  -3   6  -6   39.96    1.61
   3   6   6   37.38    1.76
  -3   6  -6   36.67    4.64
   4  -6   6    1.21    1.06
   4  -6   6    2.15    0.25
   4  -6   6    2.42    0.30
  -4  -6  -6    1.25    1.09
   4  -6   6    2.27    0.24
  -4   6  -6    2.06    0.31
   4   6   6    1.79    0.37
  -4   6  -6    1.45    1.15
   4   6   6    1.95    1.56
  -5  -6  -6   10.18    3.52
   5  -6   6   11.65    0.74
   5  -6   6   10.99    2.88
   5  -6   6   11.86    0.71
   5  -6   6   11.95    0.65
   5   6   6   11.59    3.28
  -5   6  -6   14.21    3.74
   5   6   6   11.02    0.90
  -6  -6  -6    1.44    1.77
   6  -6   6    1.11    0.26
   6  -6   6    0.98    0.20
   6  -6   6    0.08    1.26
  -6   6  -6    0.47    1.77
   6   6   6    0.07    2.07
   6   6   6    0.92    0.29
   7  -6   6   36.24    1.62
   7  -6   6   35.12    1.65
   7  -6   6   36.24    5.25
  -7  -6  -6   26.89    6.31
  -7   6  -6   25.47    5.80
   7   6   6   36.48    2.05
   8  -6   6    0.83    0.29
   8  -6   6    4.70    2.48
  -8  -6  -6    1.35    3.06
   8  -6   6    1.78    0.35
   8   6   6    2.75    0.58
  -8   6  -6    5.02    2.90
   8   6   6   -1.52    2.83
   8   6   6    1.53    0.42
   9  -6   6    5.91    0.62
   9  -6   6    5.10    0.54
  -9  -6  -6   21.22    9.96
   9  -6   6    0.67    2.87
   9   6   6    5.25    0.90
  -9   6  -6    1.01    2.95
   9   6   6    6.17    1.03
   9  -7  -6   -3.72    2.12
   9  -7  -6    0.52    0.17
  -9  -7   6   -2.96    3.67
   9   7  -6    0.46    0.37
   9   7  -6    7.17    5.22
   9   7  -6   -0.14    0.18
  -9   7   6   -1.56    1.61
   8  -7  -6   38.26    1.69
  -8  -7   6   38.19    7.96
   8  -7  -6   32.69    5.05
  -8   7   6   51.68    5.24
   8   7  -6   29.55    7.65
   8   7  -6   44.07    2.21
   8   7  -6   40.72    2.10
   7  -7  -6    4.39    0.40
  -7  -7   6    3.10    2.08
   7  -7  -6    5.29    2.33
   7   7  -6    5.03    0.72
   7   7  -6    2.53    2.69
  -7   7   6    4.98    1.96
   7   7  -6    4.46    0.56
   6  -7  -6    7.09    0.46
  -6  -7   6    7.05    2.87
   6   7  -6    5.46    3.07
   6   7  -6    6.58    0.69
   6   7  -6    6.93    0.65
   5  -7  -6    7.07    0.43
  -5   7   6    6.33    0.46
   5   7  -6    6.66    0.60
   5   7  -6    6.96    0.66
   5   7  -6    5.75    4.48
   4  -7  -6   32.69    1.28
  -4  -7   6   31.81    4.70
   4   7  -6   25.21    4.42
   4   7  -6   33.37    1.64
  -4   7   6   32.96    1.33
   4   7  -6   34.49    1.55
  -3  -7   6   -0.55    0.78
   3  -7  -6    0.13    0.08
  -3   7   6    0.22    0.08
   3   7  -6    0.07    0.09
   3   7  -6    0.30    0.13
   3   7  -6    1.00    0.92
  -2  -7   6  119.65    8.66
   2  -7  -6  132.17    4.46
  -2  -7   6  134.92    4.64
   2   7  -6  135.01    4.69
  -2   7   6  133.12    4.35
   2   7  -6  122.48    9.08
   2   7  -6  137.45    4.55
  -1  -7   6   15.96    0.87
  -1  -7   6   15.94    0.83
  -1  -7   6   13.06    2.98
   1   7  -6   15.47    0.98
   1   7  -6   15.50    0.75
  -1   7   6   15.33    0.72
   1   7  -6   16.20    3.69
   0  -7   6  157.54    5.44
   0  -7   6  144.28    5.00
   0  -7  -6  169.99    7.94
   0   7  -6  141.31    4.97
   0   7   6  157.47    7.68
   0   7  -6  143.38    5.15
   0   7   6  145.90    5.09
   0   7  -6  161.51   10.18
  -1  -7  -6   17.45    2.97
   1  -7   6   16.43    0.74
   1  -7   6   17.46    0.85
   1   7   6   20.08    3.88
  -1   7  -6   17.38    0.80
  -1   7  -6   18.58    3.06
  -1   7  -6   17.44    0.88
  -1   7  -6   18.98    3.09
   2  -7   6  127.34    4.18
   2  -7   6  129.81    4.03
  -2  -7  -6  115.05    8.49
  -2   7  -6  115.39    7.79
  -2   7  -6  119.63    4.20
  -2   7  -6  112.49    8.16
   2   7   6  119.52    8.51
  -2   7  -6  122.03    4.24
   2   7   6  121.07    4.35
   2   7   6  130.36    4.54
   3  -7   6    0.83    0.14
  -3  -7  -6    0.41    1.06
   3  -7   6    0.84    0.17
  -3   7  -6   -0.22    0.75
  -3   7  -6    0.45    0.14
   3   7   6    0.53    0.19
   3   7   6    2.70    1.39
   4  -7   6   36.85    4.14
   4  -7   6   36.16    1.37
   4  -7   6   37.12    1.43
   4  -7   6   34.27    1.50
  -4  -7  -6   34.42    4.98
   4   7   6   33.00    1.74
   4   7   6   34.98    5.33
  -4   7  -6   36.67    1.56
  -4   7  -6   33.52    5.00
   5  -7   6    5.20    0.39
   5  -7   6    6.37    0.48
  -5  -7  -6    3.29    1.88
   5  -7   6    6.43    0.44
   5  -7   6    4.00    1.60
   5   7   6    4.02    2.25
  -5   7  -6    4.54    2.08
   5   7   6    5.70    0.63
   6  -7   6    5.08    0.46
   6  -7   6    3.96    0.39
  -6  -7  -6    6.05    3.19
   6  -7   6    1.91    1.52
   6  -7   6    4.33    0.45
   6   7   6    3.62    0.68
  -6   7  -6    2.29    2.12
   7  -7   6    2.43    2.23
   7  -7   6    3.30    0.35
   7  -7   6    2.98    0.43
  -7  -7  -6    3.39    2.95
  -7   7  -6   -0.61    2.24
   7   7   6    2.33    0.50
   7   7   6    2.41    2.95
   7   7   6    3.61    0.69
  -8  -7  -6   28.22   10.91
   8  -7   6   32.71    6.81
   8  -7   6   31.18    1.42
   8  -7   6   30.87    1.53
   8   7   6   31.71    1.98
   8   7   6   33.63    2.04
  -8   7  -6   44.02    7.19
  -9  -7  -6   -3.10    4.08
   9  -7   6    0.36    0.21
  -9   7  -6    2.83    4.15
   9   7   6   -1.27    3.52
   9   7   6   -0.55    0.20
   8  -8  -6    6.67    2.24
   8  -8  -6    5.17    0.44
  -8  -8   6    1.85    3.05
   8   8  -6    5.72    0.66
   8   8  -6    4.97    0.77
  -8   8   6    5.00    1.85
   8   8  -6    4.52    4.13
   7  -8  -6    0.14    0.13
  -7  -8   6    0.09    1.66
   7  -8  -6   -0.71    0.94
   7   8  -6    0.38    2.70
  -7   8   6   -0.63    0.84
   7   8  -6    0.40    0.18
   7   8  -6    0.06    0.13
  -6  -8   6   41.63    6.92
   6  -8  -6   49.77    3.24
   6  -8  -6   51.58    1.92
   6   8  -6   57.93    7.59
   6   8  -6   51.37    2.33
   6   8  -6   51.67    2.44
  -6   8   6   53.81    3.36
   5  -8  -6    1.08    0.17
  -5  -8   6   -0.17    1.16
  -5   8   6    1.23    0.20
   5   8  -6    0.63    0.25
   5   8  -6   -0.74    1.80
   5   8  -6    1.00    0.26
  -4  -8   6   13.86    3.67
   4   8  -6   10.51    3.18
  -4   8   6   18.42    0.81
   4   8  -6   18.70    1.03
   4   8  -6   17.14    1.09
  -3  -8   6   12.65    3.18
   3   8  -6   12.27    0.85
   3   8  -6   12.85    0.77
   3   8  -6   12.38    3.67
  -2  -8   6   51.09    5.51
  -2   8   6   60.89    2.01
   2   8  -6   55.97    2.35
   2   8  -6   59.39    2.21
   2   8  -6   51.29    5.74
  -1  -8   6   51.39    5.28
  -1  -8   6   56.39    2.14
  -1  -8   6   55.14    2.20
   1   8  -6   53.39    5.57
   1   8  -6   53.61    2.04
  -1   8   6   56.91    1.99
   1   8  -6   55.70    2.24
   0  -8   6    0.21    0.08
   0  -8  -6   -0.32    0.42
   0   8   6    0.18    0.08
   0   8  -6    0.07    0.08
   0   8  -6    1.84    0.97
   0   8  -6    0.21    0.08
   0   8   6   -0.27    0.38
   1  -8   6   52.37    1.96
  -1  -8  -6   48.32    4.52
   1  -8   6   54.42    1.86
   1   8   6   50.18    2.00
  -1   8  -6   43.21    4.66
   1   8   6   53.17    2.13
  -1   8  -6   53.30    1.91
  -1   8  -6   50.45    2.04
   1   8   6   51.86    4.69
  -1   8  -6   45.09    4.63
   2  -8   6   54.63    1.94
  -2  -8  -6   54.09    5.52
  -2   8  -6   51.65    4.84
  -2   8  -6   46.56    5.14
   2   8   6   49.33    2.11
  -2   8  -6   50.43    2.27
   2   8   6   47.70    5.22
   3  -8   6   15.56    0.73
  -3  -8  -6   14.06    3.37
  -3   8  -6   12.41    3.05
  -3   8  -6   16.02    2.62
   3   8   6   14.67    0.96
  -3   8  -6   15.12    0.84
   3   8   6   18.44    4.12
   4  -8   6   14.80    0.70
   4  -8   6   14.67    0.63
   4  -8   6   13.95    0.74
  -4  -8  -6   10.93    3.61
  -4   8  -6   15.18    0.85
  -4   8  -6   11.52    3.41
   4   8   6   14.45    1.01
   4   8   6    8.85    2.97
   5  -8   6    0.90    0.18
   5  -8   6    0.42    0.89
  -5  -8  -6    3.52    2.09
   5   8   6   -0.56    1.79
   5   8   6    0.74    0.25
  -5   8  -6    1.38    1.64
  -6  -8  -6   41.83    7.30
   6  -8   6   55.94    2.21
   6  -8   6   47.87    1.91
   6  -8   6   50.00    7.86
   6   8   6   44.70    2.41
   6   8   6   40.50    8.86
   7  -8   6   -0.17    0.13
  -7  -8  -6   -0.08    2.54
   7  -8   6    1.40    1.60
   7   8   6    0.44    0.15
   7   8   6    0.26    0.21
   7   8   6   -5.56    2.74
  -7   8  -6   -2.16    1.79
   8  -8   6    6.56    0.56
   8  -8   6    7.14    3.16
  -8  -8  -6    0.42    3.79
   8   8   6    1.60    3.40
   8   8   6    5.97    0.94
   8   8   6    5.84    0.89
  -8   8  -6    0.63    2.83
   8  -9  -6    0.76    1.74
  -8  -9   6   -1.54    2.54
   8   9  -6    0.06    0.20
   8   9  -6   -2.05    3.78
  -8   9   6   -0.53    1.36
   8   9  -6    0.74    0.25
   7  -9  -6    1.56    0.25
  -7  -9   6    5.67    2.60
   7   9  -6    1.99    0.42
   7   9  -6    1.65    0.44
   7   9  -6    4.59    4.23
  -6  -9   6    1.68    2.19
   6   9  -6    4.11    2.72
  -5  -9   6   16.00    4.21
   5   9  -6   12.96    3.76
   5   9  -6   19.58    1.16
   5   9  -6   20.26    1.27
  -4  -9   6    0.13    1.07
   4   9  -6    0.49    0.17
   4   9  -6    2.32    1.73
   4   9  -6    0.14    0.15
  -3  -9   6   -0.61    1.06
   3   9  -6    0.63    0.20
   3   9  -6    1.00    0.23
  -2  -9   6   36.67    4.72
   2   9  -6   35.78    1.68
   2   9  -6   34.22    1.68
   2   9  -6   36.48    5.03
  -1  -9   6    5.71    0.48
  -1  -9   6    3.35    1.63
  -1  -9   6    5.79    0.50
   1   9  -6    5.73    1.91
   1   9  -6    6.51    0.54
   1   9  -6    5.95    0.42
  -1   9   6    6.58    0.39
   0  -9   6   63.93    2.27
   0  -9  -6   57.93    3.77
   0   9  -6   59.99    2.20
   0   9   6   59.85    2.23
   0   9   6   63.42    2.31
   0   9  -6   61.31    5.76
   0   9  -6   62.47    2.43
   0   9   6   58.38    3.99
   1  -9   6    6.25    0.39
   1  -9   6    6.69    0.46
  -1  -9  -6    6.20    1.90
  -1   9  -6    4.52    1.71
  -1   9  -6    5.74    0.39
   1   9   6    4.69    1.75
  -1   9  -6    6.45    1.90
   1   9   6    6.11    0.52
  -1   9  -6    6.61    0.51
   1   9   6    6.09    0.50
  -2  -9  -6   34.72    4.48
   2  -9   6   37.27    1.41
   2   9   6   33.51    1.62
  -2   9  -6   38.21    4.73
   2   9   6   33.33    4.39
  -2   9  -6   35.98    4.15
  -2   9  -6   34.48    1.54
  -3  -9  -6    0.96    1.22
  -3   9  -6    1.59    1.14
  -3   9  -6   -0.07    0.56
   3   9   6    2.07    1.51
  -3   9  -6    0.91    0.22
   3   9   6    0.82    0.26
  -4  -9  -6    0.21    1.61
  -4   9  -6    0.21    1.25
   4   9   6    1.41    1.31
   4   9   6    0.32    0.18
  -4   9  -6    0.26    0.11
  -5  -9  -6   14.23    4.07
  -5   9  -6   22.23    1.19
  -5   9  -6   19.02    4.69
   5   9   6   23.92    1.46
   6  -9   6    1.24    1.42
  -6  -9  -6    0.74    2.29
  -6   9  -6   -1.94    1.68
   6   9   6   -2.17    1.71
   6   9   6    0.16    0.24
   6   9   6    0.27    0.19
  -7  -9  -6   -2.82    2.89
   7  -9   6    1.13    1.84
  -7   9  -6    3.49    2.85
   7   9   6    2.10    3.52
   7   9   6    1.64    0.43
   7   9   6    1.54    0.41
   8  -9   6    4.90    2.91
   8   9   6    1.14    0.39
  -8   9  -6    0.79    3.40
  -7 -10   6    4.66    3.40
   7  10  -6    2.24    0.54
   7  10  -6   -4.00    3.07
   7  10  -6    2.35    0.47
  -6 -10   6   60.15    9.84
   6  10  -6   61.62    2.83
   6  10  -6   57.28    2.61
  -5 -10   6   -1.92    1.47
   5  10  -6   -1.66    2.24
   5  10  -6   -0.01    0.11
   5  10  -6   -0.28    0.10
  -4 -10   6   50.81    6.48
   4  10  -6   40.81    6.05
   4  10  -6   52.21    3.05
   4  10  -6   45.59    2.05
  -3 -10   6   31.55    4.62
   3  10  -6   24.32    1.39
   3  10  -6   26.90    1.27
   3  10  -6   17.06    4.40
  -2 -10   6    4.87    1.98
   2  10  -6    6.96    0.62
   2  10  -6    7.81    0.54
   2  10  -6    6.13    2.36
  -1 -10   6   23.39    3.70
  -1 -10   6   22.92    1.13
   1  10  -6   20.84    0.99
  -1  10   6   22.77    0.91
   1  10  -6   21.41    1.19
   1  10  -6   16.37    3.70
   0 -10  -6   -0.22    0.49
   0 -10   6    0.46    0.14
   0  10   6    0.29    0.13
   0  10  -6    0.55    0.81
   0  10   6    1.10    0.56
   0  10  -6    1.25    1.12
   0  10  -6    0.09    0.11
  -1 -10  -6   19.59    2.78
   1 -10   6   18.03    0.87
  -1  10  -6   18.45    3.20
  -1  10  -6   17.87    3.66
   1  10   6   18.30    2.80
  -1  10  -6   18.64    1.02
   1  10   6   19.33    1.05
   1  10   6   18.57    0.99
  -2 -10  -6    5.65    1.91
  -2  10  -6    9.29    3.80
  -2  10  -6    8.94    0.64
   2  10   6    9.84    0.90
  -3 -10  -6   27.41    4.32
  -3  10  -6   19.75    4.30
  -3  10  -6   21.25    1.11
   3  10   6   21.00    1.26
   4  10   6   46.89    2.30
  -4  10  -6   44.57    5.99
  -4  10  -6   50.79    2.08
  -5 -10  -6   -0.43    1.74
  -5  10  -6   -0.41    1.74
   5  10   6   -2.68    1.42
   5  10   6   -0.19    0.24
   5  10   6    0.23    0.17
  -5  10  -6   -0.09    0.10
  -5  10  -6    0.11    1.60
  -6 -10  -6   68.13   11.50
   6  10   6   62.16    9.54
  -6  10  -6   52.00    7.59
   6  10   6   64.42    3.00
   6  10   6   60.70    2.95
   7  10   6    0.63    0.30
  -7  10  -6   -2.96    2.11
   7  10   6    0.66    0.34
   7  11  -6   23.75    1.48
   7  11  -6   24.57    1.63
  -6 -11   6    0.86    2.88
   6  11  -6    3.69    0.62
   6  11  -6    4.54    0.55
   6  11  -6    6.24    4.68
  -5 -11   6   27.97    5.81
   5  11  -6   33.50    1.70
   5  11  -6   34.17    7.44
   5  11  -6   35.04    1.88
   4  11  -6    5.08    0.57
   4  11  -6    4.22    0.46
  -3 -11   6   39.62    5.63
   3  11  -6   43.78    2.09
   3  11  -6   44.81    1.89
  -2 -11   6   20.78    4.61
   2  11  -6   17.60    0.90
   2  11  -6   15.56    1.04
  -1 -11   6    1.64    1.07
  -1 -11   6    2.10    0.34
   1  11  -6    1.37    1.74
   1  11  -6    2.36    0.26
   1  11  -6    3.27    0.49
   0 -11   6    0.63    0.19
   0 -11  -6    0.08    0.46
   0  11   6    0.70    0.18
   0  11  -6    0.57    0.18
   0  11   6    0.56    0.17
   0  11  -6   -0.92    0.75
   0  11  -6    0.54    1.54
   0  11  -6    0.45    0.13
   0  11   6    1.18    0.61
  -1 -11  -6    2.49    1.24
  -1  11  -6    1.57    1.20
   1  11   6    2.39    0.35
   1  11   6    0.51    1.11
   1  11   6    1.69    0.33
  -1  11  -6    2.32    0.37
  -2  11  -6   18.84    4.10
  -2  11  -6   16.75    0.98
   2  11   6   18.02    1.08
  -3 -11  -6   34.21    5.19
   3  11   6   35.54    1.79
  -3  11  -6   29.71    4.78
  -3  11  -6   35.64    1.61
  -4 -11  -6    4.04    2.47
  -4  11  -6    4.16    0.47
   4  11   6    5.89    0.65
   4  11   6    5.45    2.55
  -4  11  -6    3.13    2.33
   4  11   6    5.75    0.64
  -4  11  -6    4.49    2.36
  -5  11  -6   26.49    5.67
   5  11   6   31.61    1.80
  -5  11  -6   29.08    1.51
   5  11   6   31.47    1.82
   6  11   6    4.25    0.73
  -6  11  -6    4.02    3.22
   6  11   6    3.31    0.62
   7  11   6   24.23    1.64
   7  11   6   23.70    1.67
  -7  11  -6   17.92    5.39
   6  12  -6   11.89    1.44
   6  12  -6   11.41    0.94
   5  12  -6    0.16    0.20
   5  12  -6    0.69    0.26
  -4 -12   6   24.28    5.31
   4  12  -6   33.89    7.11
   4  12  -6   36.75    1.90
   4  12  -6   34.69    1.65
  -3 -12   6    2.31    1.65
   3  12  -6    1.95    0.40
   3  12  -6    5.14    2.82
   3  12  -6    1.73    0.32
  -2 -12   6   18.64    4.16
   2  12  -6   26.13    1.23
   2  12  -6   40.63    5.73
   2  12  -6   27.30    1.49
  -1 -12   6    2.53    1.82
   1  12  -6    5.39    0.41
   1  12  -6    5.62    0.58
   1  12  -6    7.40    3.29
   0  12   6    0.80    0.58
   0  12   6    0.02    0.12
   0  12  -6    1.37    1.39
   0  12   6    0.14    0.10
   0  12  -6    0.24    0.14
   0  12  -6    0.10    0.07
   0  12  -6    0.30    1.40
  -1 -12  -6    6.11    1.79
   1  12   6    5.98    0.65
   1  12   6    7.00    2.19
   1  12   6    6.97    0.59
   1  12   6    6.67    0.55
  -1  12  -6    6.34    2.33
  -1  12  -6    7.44    0.61
  -2 -12  -6   23.44    3.68
  -2  12  -6   20.08    4.18
   2  12   6   24.29    1.36
  -2  12  -6   26.68    1.32
   2  12   6   23.94    3.96
   2  12   6   25.12    1.35
   3  12   6    1.13    0.32
  -3  12  -6    1.52    0.31
  -3  12  -6    1.09    1.59
   3  12   6    2.06    0.40
   4  12   6   36.70    1.94
   4  12   6   39.91    2.11
  -4  12  -6   39.49    1.79
  -4  12  -6   26.59    5.50
  -5  12  -6    1.41    0.31
  -5  12  -6   -0.44    2.13
   5  12   6    2.25    0.51
   5  12   6    1.82    0.46
  -6  12  -6    5.76    4.06
   6  12   6   15.70    1.28
   6  12   6   16.75    1.29
   5  13  -6   17.26    1.27
   5  13  -6   17.56    1.11
   4  13  -6    2.06    0.46
   4  13  -6    1.81    0.41
   3  13  -6   12.08    0.96
   3  13  -6   11.57    0.77
   2  13  -6    2.83    0.50
   2  13  -6    2.76    0.32
   1  13  -6    1.77    0.27
   1  13  -6    1.93    0.45
   0  13  -6    2.46    0.43
   0  13   6    2.10    0.35
   0  13  -6    4.59    1.84
  -1 -13  -6    4.44    1.87
   1  13   6    3.90    0.52
  -1  13  -6    3.68    0.45
   1  13   6    3.55    0.46
  -1  13  -6    3.87    2.20
   1  13   6    3.55    1.93
   2  13   6    3.91    0.47
  -2  13  -6    2.27    0.41
  -2  13  -6    2.87    1.94
   2  13   6    2.39    0.41
   3  13   6   13.79    1.00
   3  13   6   16.19    1.13
  -3  13  -6   10.97    3.52
  -3  13  -6   16.28    0.99
   4  13   6    3.52    0.61
  -4  13  -6    1.81    2.04
  -4  13  -6    3.01    0.48
  -5  13  -6   21.29    4.96
   5  13   6   17.14    1.31
  -5  13  -6   19.93    1.18
   5  13   6   19.84    1.35
   4  14  -6   56.58    2.68
   4  14  -6   52.30    2.31
   3  14  -6   11.07    0.96
   3  14  -6   11.04    0.74
   2  14  -6    7.82    0.55
   2  14  -6    7.91    0.78
   1  14  -6    6.76    0.46
   1  14  -6    6.06    0.62
   1  14  -6    4.78    2.22
   0  14  -6    0.89    1.53
   0  14  -6    0.59    0.20
   1  14   6    5.76    0.47
  -1  14  -6    5.42    2.43
   1  14   6    5.46    0.57
  -2  14  -6    6.00    0.73
  -2  14  -6    6.97    2.50
   2  14   6    7.60    0.70
   2  14   6    6.71    0.59
   3  14   6   10.32    1.57
  -3  14  -6    7.58    4.09
   3  14   6   11.56    0.87
   4  14   6   49.89    2.37
   4  14   6   49.95    2.51
  -4  14  -6   47.14    2.20
  -4  14  -6   55.27    7.24
   2  15  -6   10.83    0.73
   2  15  -6   10.84    0.92
   1  15  -6    1.09    0.31
   1  15  -6    0.45    1.91
   0  15   6   13.43    0.85
   0  15  -6    5.39    2.86
   0  15  -6   12.56    0.94
  -1  15  -6   -0.38    1.60
  -1  15  -6    1.17    0.32
   1  15   6    0.31    0.28
  -2  15  -6   11.89    0.89
   2  15   6   10.67    0.91
  -2  15  -6   11.13    3.46
   2  15   6   12.32    0.84
  10   0  -7   -0.07    0.18
 -10   0   7   -1.77    3.03
  10   0  -7   -0.18    0.13
   9   0  -7   54.63    2.44
   9   0  -7   52.66    2.23
   9   0  -7   63.41    8.93
  -9   0   7   45.32    7.23
  -8   0   7   -0.95    1.24
   8   0  -7    2.24    2.30
   8   0  -7    0.31    0.12
   7   0  -7   36.27    1.67
   7   0  -7   29.33    6.18
   7   0  -7   34.92    1.54
  -7   0   7   28.73    4.80
   6   0  -7    0.05    0.08
   6   0  -7    0.10    1.25
  -6   0   7    0.66    1.25
   6   0  -7    0.10    0.09
  -5   0   7   17.50    2.99
   5   0  -7   20.87    0.96
   5   0  -7   18.70    1.00
   4   0  -7    0.09    0.08
   4   0  -7    0.16    0.07
  -4   0   7    0.08    0.07
   4   0  -7    1.50    1.29
  -4   0   7   -0.46    0.52
   3   0  -7   14.52    0.69
   3   0  -7   14.94    0.75
  -3   0   7   15.38    0.79
  -3   0   7   15.03    0.79
  -3   0   7   13.46    2.29
  -2   0   7   -0.06    0.04
   2   0  -7    0.06    0.04
  -2   0   7    0.07    0.05
  -2   0   7    0.16    0.31
   2   0  -7    0.04    0.05
   1   0  -7    0.39    0.11
  -1   0   7    0.95    0.56
  -1   0   7    0.68    0.13
   1   0  -7    0.77    0.12
   1   0  -7   -0.06    0.39
  -1   0   7    0.83    0.15
   0   0  -7    0.07    0.06
   0   0  -7   -0.38    0.30
   0   0  -7   -0.03    0.02
   0   0   7    0.03    0.03
   0   0   7    0.04    0.04
   1   0   7    8.51    0.52
  -1   0  -7   10.29    2.39
   1   0   7    7.53    0.44
  -1   0  -7    8.78    0.57
   1   0   7    7.26    1.80
   2   0   7    0.31    0.56
   2   0   7    0.38    0.13
  -2   0  -7    1.12    0.95
   3   0   7   29.09    1.37
  -3   0  -7   26.04    4.29
   3   0   7   31.15    4.31
   3   0   7   24.95    1.16
   4   0   7   -0.08    0.82
   5   0   7   60.09    6.65
   5   0   7   58.59    2.51
  -5   0  -7   49.14    6.52
  -6   0  -7   -1.01    0.97
   6   0   7   -0.13    0.07
   6   0   7   -1.48    0.91
   7   0   7    8.15    3.40
  -7   0  -7    9.01    3.40
   7   0   7   12.93    1.01
   8   0   7   -0.22    1.93
   8   0   7   -0.28    0.15
  -8   0  -7   -2.53    1.74
  -9   0  -7    4.19    4.06
   9   0   7    5.47    3.26
 -10   0  -7   -2.79    3.62
  10   0   7   -0.01    0.23
  10   0   7   -0.61    4.94
  10   0   7    0.69    0.26
  10  -1  -7   10.58    0.70
 -10  -1   7    6.70    6.19
  10  -1  -7    9.04    0.82
  10   1  -7    8.99    0.76
  10   1  -7    9.41    0.86
 -10   1   7    5.90    4.43
   9  -1  -7    2.16    0.34
   9  -1  -7    1.43    0.29
  -9  -1   7    4.08    3.23
  -9   1   7    4.57    2.90
   9   1  -7    2.11    0.42
   9   1  -7    2.32    3.30
   8  -1  -7   19.69    1.00
   8  -1  -7   18.28    1.31
  -8  -1   7   21.83    5.50
   8  -1  -7   15.86    6.20
  -8   1   7   16.23    4.32
   8   1  -7   18.67    1.17
   8   1  -7   19.31    1.10
   8   1  -7   14.34    4.83
   7  -1  -7   10.51    3.37
   7  -1  -7    7.56    0.62
   7  -1  -7    7.68    0.53
  -7  -1   7    6.33    2.29
  -7   1   7    8.58    2.64
   7   1  -7    7.06    0.64
   7   1  -7    7.39    3.14
   7   1  -7    8.74    0.63
   6  -1  -7    0.92    0.19
  -6  -1   7    0.38    1.45
   6  -1  -7    0.42    1.20
   6  -1  -7    1.31    0.26
   6   1  -7    0.94    0.22
  -6   1   7    1.95    1.38
   6   1  -7    0.86    0.22
   6   1  -7    3.29    1.91
   5  -1  -7   54.14    1.97
   5  -1  -7   53.57    5.86
   5  -1  -7   54.12    2.11
  -5  -1   7   50.87    5.41
  -5   1   7   53.72    5.19
   5   1  -7   54.60    2.17
   5   1  -7   42.44    5.48
  -4  -1   7    2.58    1.25
   4  -1  -7    2.06    0.20
   4  -1  -7    2.02    0.25
   4  -1  -7    0.99    0.94
  -4   1   7    2.32    0.35
   4   1  -7    2.00    0.33
  -4   1   7    1.00    0.85
  -4   1   7    2.82    0.30
   4   1  -7    2.10    0.24
   4   1  -7    1.98    1.47
   3  -1  -7   23.26    0.94
   3  -1  -7   27.96    3.54
   3  -1  -7   23.75    1.04
  -3  -1   7   27.09    3.51
  -3  -1   7   23.46    1.11
   3   1  -7   23.48    3.48
   3   1  -7   25.63    1.06
  -3   1   7   23.78    1.09
  -3   1   7   28.36    3.21
  -3   1   7   24.34    1.05
   3   1  -7   22.24    1.06
  -2  -1   7    8.63    2.01
   2  -1  -7    9.15    0.44
   2  -1  -7   10.67    0.55
  -2  -1   7    9.83    0.56
  -2  -1   7    9.97    0.56
   2  -1  -7    9.76    2.08
   2   1  -7    6.78    1.78
  -2   1   7    9.54    0.50
  -2   1   7   10.16    0.55
   2   1  -7    9.50    0.54
  -2   1   7    9.70    1.63
   2   1  -7    9.55    0.52
   1  -1  -7    8.97    1.55
  -1  -1   7    8.41    0.49
   1  -1  -7    8.46    0.40
   1  -1  -7    8.85    1.49
  -1  -1   7    8.46    0.48
   1  -1  -7    9.06    0.50
  -1  -1   7    6.25    1.58
  -1   1   7    9.17    0.45
   1   1  -7    8.00    0.45
   1   1  -7    7.85    1.80
  -1   1   7    8.89    0.49
   0  -1   7    9.85    0.53
   0  -1  -7   11.08    1.83
   0  -1   7    9.79    0.53
   0   1   7   10.14    0.49
   0   1   7   13.70    1.96
   0   1  -7    9.65    0.51
   0   1   7   10.34    0.56
   0   1  -7   10.90    1.88
   0   1  -7   11.09    1.91
   0   1  -7   10.27    0.56
  -1  -1  -7    1.88    0.99
   1  -1   7    2.92    0.25
   1  -1   7    2.99    1.28
   1  -1   7    3.20    0.28
  -1  -1  -7    2.72    0.32
   1   1   7    3.46    0.26
  -1   1  -7    3.23    0.32
   1   1   7    3.61    0.32
   1   1   7    2.78    1.13
  -1   1  -7    2.22    1.19
  -1   1  -7    3.57    0.27
   2  -1   7    3.29    0.28
   2  -1   7    2.97    0.32
  -2  -1  -7    1.65    1.02
   2  -1   7    2.68    1.34
   2   1   7    3.34    1.45
  -2   1  -7    2.81    1.21
   2   1   7    3.20    0.34
   3  -1   7   19.29    0.89
   3  -1   7   17.18    0.98
   3  -1   7   21.96    3.53
  -3  -1  -7   16.73    3.80
   3   1   7   18.01    1.05
   3   1   7   20.54    3.58
  -3   1  -7   11.46    3.04
  -4  -1  -7    2.62    1.81
   4  -1   7    4.50    0.48
   4  -1   7    8.46    2.62
   4   1   7    5.17    2.68
   4   1   7    5.15    0.61
  -4   1  -7    3.84    2.23
   5  -1   7    5.17    2.34
   5  -1   7    7.50    0.65
  -5  -1  -7    5.03    2.30
   5   1   7    3.30    1.77
  -5   1  -7    8.46    3.03
   5   1   7    7.45    0.68
   6  -1   7    5.91    2.65
  -6  -1  -7    3.90    2.54
   6  -1   7    8.88    0.75
  -6   1  -7    5.48    2.65
   6   1   7    7.26    2.79
   6   1   7    7.15    0.71
  -7  -1  -7   14.13    4.43
   7  -1   7    9.27    3.55
   7  -1   7   14.30    1.05
   7   1   7   14.12    1.08
   7   1   7   12.88    4.17
  -7   1  -7    8.71    3.59
  -8  -1  -7    5.24    3.48
   8  -1   7    5.75    2.88
  -8   1  -7    7.84    3.37
   8   1   7    6.68    3.15
   9  -1   7   45.69    9.28
   9  -1   7   35.50    2.04
  -9  -1  -7   34.62    9.19
   9  -1   7   36.44    2.01
  -9   1  -7   24.40    6.59
   9   1   7   36.46    2.09
   9   1   7   27.46    7.13
   9   1   7   37.55    2.15
  10  -1   7    3.58    4.27
 -10  -1  -7   -4.52    3.64
 -10   1  -7    5.80    5.73
  10   1   7   11.88    4.69
 -10  -2   7    6.30    4.33
  10  -2  -7    5.87    0.54
  10  -2  -7    4.87    0.58
  10   2  -7    5.19    0.98
  10   2  -7    5.11    0.58
  10   2  -7    5.56    8.39
   9  -2  -7   11.43    4.47
  -9  -2   7   16.84    5.48
   9  -2  -7   18.60    1.14
   9  -2  -7   18.85    0.92
   9   2  -7   17.86    1.13
  -9   2   7   19.07    4.96
   9   2  -7   18.80    1.23
   9   2  -7   15.03    5.75
   8  -2  -7   12.49    0.87
   8  -2  -7    8.81    4.03
  -8  -2   7    5.55    3.23
   8   2  -7   14.26    0.98
   8   2  -7   13.55    0.90
  -8   2   7   12.79    3.25
   8   2  -7   10.42    4.43
   7  -2  -7    2.18    1.94
  -7  -2   7    3.93    2.41
   7  -2  -7    2.32    0.25
   7  -2  -7    2.13    0.35
   7   2  -7    2.78    0.44
   7   2  -7    2.37    0.39
  -7   2   7    2.27    1.56
   7   2  -7    0.51    1.61
   6  -2  -7   20.87    4.50
   6  -2  -7   32.59    1.27
  -6  -2   7   18.22    6.03
   6  -2  -7   34.97    1.50
  -6   2   7   34.10    4.52
   6   2  -7   32.30    7.69
   6   2  -7   33.40    1.53
   6   2  -7   33.03    1.57
   5  -2  -7    1.63    1.08
  -5  -2   7    0.67    1.02
   5   2  -7    1.27    0.25
   5   2  -7    3.74    1.99
  -5   2   7    0.59    0.77
   4  -2  -7   24.18    3.54
   4  -2  -7   19.30    0.78
   4  -2  -7   19.74    0.94
  -4  -2   7   24.75    3.72
   4   2  -7   17.73    3.94
   4   2  -7   19.04    0.99
  -4   2   7   23.52    3.06
  -4   2   7   20.76    1.19
  -4   2   7   20.59    1.02
   4   2  -7   19.94    1.02
   3  -2  -7   14.15    2.83
   3  -2  -7   14.67    0.73
  -3  -2   7   15.49    0.84
  -3  -2   7   14.26    0.81
  -3  -2   7   16.53    2.87
  -3   2   7   18.36    2.31
   3   2  -7   17.97    3.88
   3   2  -7   14.25    0.77
  -3   2   7   15.10    0.71
   3   2  -7   14.52    0.78
   2  -2  -7    6.50    0.40
   2  -2  -7    5.30    1.41
  -2  -2   7    6.14    1.75
   2   2  -7    6.41    0.42
  -2   2   7    6.64    0.41
  -2   2   7    5.82    1.37
  -2   2   7    5.84    0.35
   2   2  -7    5.54    1.81
   2   2  -7    5.93    0.41
   1  -2  -7    3.16    0.27
  -1  -2   7    3.04    0.26
   1  -2  -7    3.40    1.03
   1  -2  -7    2.49    0.86
  -1  -2   7    4.88    1.54
  -1  -2   7    3.10    0.28
   1   2  -7    3.13    0.26
  -1   2   7    2.76    0.25
   1   2  -7    3.08    1.29
   1   2  -7    2.79    0.25
  -1   2   7    2.72    0.20
   0  -2   7    3.57    0.29
   0  -2  -7    3.33    1.07
   0  -2  -7    3.28    0.31
   0  -2   7    3.37    0.27
   0   2  -7    3.11    0.26
   0   2   7    3.75    0.31
   0   2   7    3.44    1.10
   0   2  -7    3.47    1.33
   0   2   7    3.44    0.24
   0   2  -7    3.21    0.27
   0   2  -7    4.75    1.62
   1  -2   7    5.22    0.36
   1  -2   7    4.85    1.52
   1  -2   7    4.79    0.35
  -1  -2  -7    3.84    1.58
  -1  -2  -7    4.52    0.42
   1   2   7    6.69    1.87
  -1   2  -7    5.11    0.40
  -1   2  -7    4.82    0.34
  -1   2  -7    5.00    1.55
   1   2   7    5.18    0.42
   2  -2   7    6.30    1.81
   2  -2   7    6.25    0.41
   2  -2   7    6.84    0.46
  -2  -2  -7    5.40    2.03
  -2   2  -7    6.80    2.32
  -2   2  -7    5.86    0.40
   2   2   7    6.08    1.84
  -2   2  -7    5.94    0.50
   3  -2   7   10.51    0.70
   3  -2   7    8.18    2.30
   3  -2   7   10.36    0.60
  -3  -2  -7   11.90    3.22
   3   2   7   10.31    0.75
   3   2   7   11.55    3.25
  -3   2  -7    6.75    2.37
   4  -2   7    3.24    0.37
  -4  -2  -7    3.02    2.04
   4  -2   7    2.66    1.59
   4   2   7    2.18    0.39
   4   2   7    2.29    1.48
  -4   2  -7    4.34    2.01
   5  -2   7   22.88    1.27
  -5  -2  -7   25.50    4.46
   5  -2   7   14.17    4.29
  -5   2  -7   18.05    5.18
   5   2   7   22.14    1.32
   5   2   7   27.55    4.47
   6  -2   7    6.15    2.44
   6  -2   7    6.48    0.63
   6   2   7    6.24    0.66
   6   2   7    1.60    2.11
  -6   2  -7    4.89    2.43
   7  -2   7    6.81    0.69
   7  -2   7    9.30    3.32
  -7  -2  -7    4.06    3.52
  -7   2  -7    8.35    3.47
   7   2   7    7.06    0.76
   7   2   7    7.66    2.99
  -8  -2  -7   33.21    8.11
   8  -2   7   26.79    6.23
   8  -2   7   29.90    1.69
   8   2   7   29.19    1.80
  -8   2  -7   27.35    6.64
   8   2   7   35.26    7.59
   9  -2   7    2.00    0.41
   9  -2   7    0.58    2.76
   9  -2   7    1.22    0.35
  -9  -2  -7    1.78    3.45
   9   2   7    1.50    0.41
   9   2   7    8.32    4.20
  -9   2  -7   -1.94    3.16
   9   2   7    1.93    0.45
  10  -2   7    5.91    8.62
 -10  -2  -7   -3.28    5.11
  10   2   7    4.09    5.39
 -10   2  -7    6.89    4.95
  10  -3  -7   21.62    1.28
 -10  -3   7   17.06    5.58
  10   3  -7   23.96    1.49
  10   3  -7   19.48    1.31
   9  -3  -7    2.89    2.61
   9  -3  -7    0.23    0.12
  -9  -3   7   -2.18    2.78
   9   3  -7    0.37    0.17
  -9   3   7   -0.18    1.61
   9   3  -7    0.11    0.17
   9   3  -7   -3.31    2.81
   8  -3  -7   32.47    6.72
  -8  -3   7   20.03    5.57
   8  -3  -7   26.24    1.36
   8   3  -7   23.15    6.08
  -8   3   7   28.90    4.93
   8   3  -7   27.94    1.54
   8   3  -7   26.11    1.45
  -7  -3   7    1.35    1.93
   7  -3  -7    2.28    0.36
   7  -3  -7    1.78    2.22
  -7   3   7    1.20    1.32
   7   3  -7    2.98    0.50
   7   3  -7    1.95    2.44
   7   3  -7    2.45    0.45
   6  -3  -7   10.70    0.69
   6  -3  -7   11.60    3.27
  -6  -3   7    9.34    3.01
  -6   3   7    9.57    2.81
   6   3  -7   11.22    0.80
   6   3  -7   11.65    0.80
   6   3  -7   14.69    4.18
   5  -3  -7    1.77    1.41
  -5  -3   7    1.39    1.41
   5   3  -7    4.35    1.90
  -5   3   7    2.54    1.10
   5   3  -7    2.60    0.41
   5   3  -7    2.02    0.34
  -5   3   7    2.51    0.37
   4  -3  -7    3.27    1.51
   4  -3  -7    3.15    0.30
  -4  -3   7    1.92    1.38
  -4   3   7    4.67    0.36
   4   3  -7    4.75    1.69
  -4   3   7    3.64    0.35
  -4   3   7    4.29    1.35
   4   3  -7    3.37    0.36
   3  -3  -7    1.07    0.18
  -3  -3   7    1.09    0.24
  -3  -3   7    1.80    1.10
  -3  -3   7    1.15    0.24
   3  -3  -7    1.66    0.96
   3   3  -7    0.75    0.17
   3   3  -7    0.50    1.12
  -3   3   7    1.44    0.23
  -3   3   7    1.04    0.65
  -3   3   7    1.23    0.18
   3   3  -7    1.38    0.26
   2  -3  -7    5.54    0.38
  -2  -3   7    6.23    0.46
  -2  -3   7    5.97    0.43
  -2  -3   7    6.16    1.96
   2  -3  -7    6.49    1.55
  -2   3   7    5.54    0.38
   2   3  -7    6.22    0.44
   2   3  -7    5.72    0.40
   2   3  -7    6.02    1.82
  -2   3   7    5.58    0.31
  -1  -3   7    0.12    0.07
  -1  -3   7    0.19    0.07
  -1  -3   7    0.24    0.46
   1  -3  -7    0.20    0.08
   1  -3  -7    0.40    0.32
   1  -3  -7    0.18    0.30
   1   3  -7   -0.02    0.32
   1   3  -7    0.08    0.06
   1   3  -7    0.21    0.09
  -1   3   7    0.17    0.05
  -1   3   7    0.01    0.05
   0  -3   7    7.25    0.42
   0  -3   7    6.69    0.44
   0  -3  -7    6.37    1.58
   0  -3  -7    6.59    0.48
   0   3  -7    5.08    1.53
   0   3  -7    5.90    1.64
   0   3   7    7.08    0.46
   0   3  -7    6.89    0.44
   0   3  -7    6.47    0.42
   0   3   7    6.16    1.49
   1  -3   7    2.02    0.20
  -1  -3  -7    2.06    1.25
   1  -3   7    1.59    0.19
   1   3   7    1.04    0.79
  -1   3  -7    0.97    0.84
  -1   3  -7    1.38    0.24
  -1   3  -7    1.94    0.21
   1   3   7    2.10    0.30
   2  -3   7    6.08    0.42
   2  -3   7    4.36    1.63
   2  -3   7    5.70    0.40
  -2  -3  -7    6.86    2.33
  -2   3  -7    8.91    2.57
  -2   3  -7    5.27    0.39
   2   3   7    5.93    0.51
   2   3   7    6.42    2.14
  -2   3  -7    5.62    0.47
   3  -3   7    0.70    0.17
  -3  -3  -7    2.24    1.37
   3  -3   7    0.80    0.17
   3  -3   7    0.06    0.83
   3   3   7    1.00    0.96
  -3   3  -7    1.13    1.13
  -4  -3  -7   46.62    6.27
   4  -3   7   34.87    1.62
   4  -3   7   43.49    5.36
   4  -3   7   35.22    1.50
  -4   3  -7   39.41    5.66
   4   3   7   33.14    1.70
   4   3   7   44.10    5.92
   5  -3   7    1.15    0.29
   5  -3   7    1.03    0.96
  -5  -3  -7    0.72    1.52
  -5   3  -7    1.61    1.42
   5   3   7    1.23    0.33
   5   3   7    2.63    1.82
  -6  -3  -7   19.39    5.51
   6  -3   7   25.51    1.40
   6  -3   7   25.12    4.41
   6   3   7   30.48    5.07
   6   3   7   24.33    1.49
  -6   3  -7   19.85    4.93
   7  -3   7    0.09    0.13
   7  -3   7   -0.35    1.68
  -7  -3  -7    0.76    2.61
   7   3   7   -0.62    1.84
   7   3   7   -0.01    0.17
  -7   3  -7   -1.89    1.57
  -8  -3  -7    5.54    3.88
   8  -3   7    9.32    3.89
   8  -3   7    8.99    0.80
   8   3   7    9.75    0.93
  -8   3  -7    6.17    3.32
   8   3   7    8.09    3.85
   9  -3   7    1.31    0.40
  -9  -3  -7   -3.89    2.83
   9  -3   7    1.38    0.34
   9  -3   7    3.86    2.54
  -9   3  -7    1.20    2.34
   9   3   7    1.93    0.45
   9   3   7    0.13    0.33
 -10  -3  -7    2.92    4.20
  10  -3   7    9.29    0.88
  10  -3   7   10.22    0.91
  10   3   7    9.96    1.02
  10   3   7    9.10    1.01
  10   3   7    6.27    5.55
   9  -4  -7    2.58    0.43
  -9  -4   7    5.71    3.92
   9  -4  -7    7.21    3.88
  -9   4   7    0.63    1.73
   9   4  -7    6.62    3.56
   9   4  -7    2.14    0.50
   9   4  -7    1.76    0.39
   8  -4  -7    2.41    2.27
   8  -4  -7    4.51    0.44
  -8  -4   7    5.33    3.48
   8   4  -7    4.54    3.02
   8   4  -7    4.84    0.56
  -8   4   7    4.03    2.09
   8   4  -7    3.22    0.52
   7  -4  -7    2.86    0.33
   7  -4  -7    0.26    1.80
  -7  -4   7    2.13    1.84
   7   4  -7    2.72    0.45
  -7   4   7    2.22    1.56
   7   4  -7    2.15    0.43
   7   4  -7    0.79    2.00
   6  -4  -7   17.74    0.94
   6  -4  -7   23.74    4.00
  -6  -4   7   16.09    4.01
   6   4  -7   17.91    1.10
  -6   4   7   17.21    2.82
   6   4  -7   19.86    1.14
   6   4  -7   22.09    5.33
  -5  -4   7    2.12    1.37
   5  -4  -7    3.81    0.33
   5  -4  -7    2.48    1.35
  -5   4   7    3.23    0.34
  -5   4   7    4.88    1.44
   5   4  -7    3.53    0.39
   5   4  -7    3.21    0.39
   5   4  -7    1.37    1.59
   4  -4  -7   42.77    1.62
  -4  -4   7   39.17    4.74
   4  -4  -7   42.38    4.09
  -4   4   7   43.40    1.61
   4   4  -7   41.62    1.80
  -4   4   7   41.58    1.69
   4   4  -7   42.54    1.78
  -4   4   7   36.86    3.22
   4   4  -7   29.85    4.44
   3  -4  -7    4.10    1.37
   3  -4  -7    2.99    0.27
  -3  -4   7    2.07    1.09
  -3   4   7    2.79    0.22
   3   4  -7    3.25    0.33
  -3   4   7    2.92    0.28
  -3   4   7    3.50    1.01
   3   4  -7    0.33    1.07
  -2  -4   7    5.84    1.86
  -2  -4   7    9.16    0.57
   2  -4  -7   11.93    1.50
   2  -4  -7   10.16    1.21
  -2  -4   7    8.65    0.59
   2  -4  -7    7.90    0.48
   2   4  -7    8.99    0.58
   2   4  -7    8.41    0.53
   2   4  -7   10.58    2.90
  -2   4   7    8.43    0.49
  -1  -4   7    4.24    0.37
  -1  -4   7    4.51    1.54
  -1  -4   7    4.67    0.35
   1  -4  -7    4.18    1.06
   1  -4  -7    4.36    0.36
   1  -4  -7    4.76    1.04
  -1   4   7    4.75    0.33
   1   4  -7    3.88    0.34
   1   4  -7    4.15    0.33
   1   4  -7    4.94    1.81
   0  -4   7   21.70    0.94
   0  -4  -7   20.88    1.06
   0  -4   7   23.08    1.02
   0  -4  -7   23.17    2.73
   0   4  -7   26.77    3.36
   0   4   7   23.08    2.48
   0   4  -7   21.86    0.97
   0   4  -7   21.94    1.00
   0   4  -7   28.94    3.51
   0   4   7   22.90    1.03
   1  -4   7    1.53    0.18
  -1  -4  -7    1.23    0.92
   1  -4   7    1.84    0.22
   1   4   7    0.42    0.72
  -1   4  -7    1.54    0.20
   1   4   7    2.15    0.32
  -1   4  -7    2.95    1.21
  -1   4  -7    1.47    1.00
  -1   4  -7    1.58    0.25
  -2  -4  -7    7.70    2.55
   2  -4   7    7.62    2.15
   2  -4   7    8.59    0.50
   2   4   7    9.91    2.46
  -2   4  -7    8.28    0.52
   2   4   7    9.39    0.68
  -2   4  -7    8.00    0.59
  -2   4  -7   12.94    3.07
   3  -4   7    3.81    0.34
  -3  -4  -7    3.36    1.82
   3  -4   7    3.58    0.31
   3  -4   7    5.60    2.08
  -3   4  -7    3.07    1.66
   3   4   7    5.99    2.30
  -3   4  -7    3.28    0.32
  -4  -4  -7    1.17    1.28
   4  -4   7    4.35    1.66
   4  -4   7    1.85    0.30
   4   4   7    1.72    1.42
  -4   4  -7    2.83    1.36
   4   4   7    2.71    0.46
   5  -4   7    2.59    1.58
   5  -4   7    3.88    0.45
  -5  -4  -7    2.95    1.95
  -5   4  -7    1.31    1.94
   5   4   7    0.06    1.29
   5   4   7    4.01    0.50
   6  -4   7   19.29    4.67
   6  -4   7   17.03    1.05
  -6  -4  -7   16.10    4.75
  -6   4  -7   15.79    4.68
   6   4   7   13.21    4.14
   6   4   7   15.19    1.14
  -7  -4  -7    0.31    2.32
   7  -4   7    5.45    2.75
   7  -4   7    3.31    0.53
  -7   4  -7    4.60    2.46
   7   4   7    1.88    2.18
   7   4   7    2.55    0.54
   8  -4   7   24.01    5.77
   8  -4   7   24.82    1.42
  -8  -4  -7   22.17    6.24
   8   4   7   22.65    1.59
   8   4   7   19.68    5.39
   9  -4   7   -0.16    2.94
   9  -4   7    0.13    0.16
  -9  -4  -7    0.64    3.42
   9  -4   7    0.02    0.17
  -9   4  -7   -0.57    2.57
   9   4   7   -0.22    0.16
   9   4   7    5.82    4.13
   9   4   7    0.22    0.21
  -9  -5   7   -2.65    4.13
   9  -5  -7   -0.16    2.36
   9   5  -7    2.65    5.17
  -9   5   7   -0.67    1.91
   8  -5  -7   11.30    3.90
   8  -5  -7   16.91    0.98
  -8  -5   7   17.40    5.03
   8   5  -7   18.46    1.23
   8   5  -7   20.74    1.29
   8   5  -7   19.82    6.35
  -8   5   7   13.84    3.15
  -7  -5   7   36.20    5.79
   7  -5  -7   33.83    1.51
   7  -5  -7   30.67    5.07
   7   5  -7   24.50    5.79
   7   5  -7   36.49    1.82
  -7   5   7   36.02    4.37
   7   5  -7   34.50    1.77
   6  -5  -7   20.03    0.97
   6  -5  -7   18.67    4.01
  -6  -5   7   20.04    4.58
   6   5  -7   18.92    1.17
  -6   5   7   19.36    2.82
   6   5  -7   21.48    5.14
   6   5  -7   19.33    1.16
   5  -5  -7   24.07    1.05
   5  -5  -7   20.60    3.15
  -5  -5   7   16.93    4.04
   5   5  -7   23.36    1.23
  -5   5   7   24.27    1.16
  -5   5   7   20.65    2.52
  -5   5   7   21.24    1.06
   5   5  -7   21.93    1.24
   5   5  -7   23.28    5.32
   4  -5  -7    1.54    0.19
  -4  -5   7    0.20    0.66
   4  -5  -7    1.98    0.98
   4   5  -7    1.61    0.33
   4   5  -7    1.56    1.22
  -4   5   7    2.26    0.22
  -4   5   7    0.91    0.54
  -4   5   7    1.70    0.26
   4   5  -7    1.21    0.24
   3  -5  -7   12.92    0.65
  -3  -5   7   17.09    3.85
   3  -5  -7   16.01    1.91
   3   5  -7   11.44    0.79
   3   5  -7   12.02    0.78
   3   5  -7   11.00    3.37
  -3   5   7   13.23    0.66
  -2  -5   7    3.20    0.36
   2  -5  -7    2.94    0.28
  -2  -5   7    3.21    1.51
  -2  -5   7    3.44    0.33
   2  -5  -7    4.43    0.74
   2  -5  -7    3.92    0.75
   2   5  -7    6.01    2.03
   2   5  -7    3.26    0.31
   2   5  -7    3.55    0.36
  -2   5   7    2.89    0.25
  -1  -5   7    0.59    0.14
   1  -5  -7    0.65    0.41
  -1  -5   7    0.75    0.17
   1  -5  -7    0.76    0.17
  -1  -5   7    0.41    0.67
   1  -5  -7    0.80    0.55
   1   5  -7    0.97    0.21
   1   5  -7    0.83    0.17
   1   5  -7   -0.07    0.62
  -1   5   7    0.63    0.14
   0  -5   7   15.84    0.83
   0  -5   7   15.82    0.75
   0  -5  -7   15.36    2.30
   0   5  -7   16.94    0.84
   0   5  -7   19.91    3.07
   0   5  -7   15.46    0.76
   0   5   7   17.32    0.85
   0   5   7   19.94    2.25
   1  -5   7    0.74    0.14
  -1  -5  -7    0.35    0.74
   1  -5   7    0.60    0.21
   1   5   7    0.60    0.20
  -1   5  -7    0.89    0.19
  -1   5  -7    0.54    0.13
   1   5   7   -0.03    0.59
  -1   5  -7    0.89    0.68
  -1   5  -7    1.82    0.89
   2  -5   7    9.51    0.52
  -2  -5  -7    7.59    2.37
   2  -5   7    9.52    0.81
  -2   5  -7    8.62    2.62
   2   5   7   11.44    3.08
  -2   5  -7   10.63    0.61
   2   5   7   11.00    0.76
  -2   5  -7    9.77    0.64
   3  -5   7    0.59    0.14
   3  -5   7    0.49    0.12
   3  -5   7    0.98    0.89
  -3  -5  -7    0.55    1.12
  -3   5  -7    0.92    1.17
  -3   5  -7    0.99    0.19
   3   5   7    1.53    1.39
   3   5   7    0.37    0.13
   4  -5   7   22.36    1.02
   4  -5   7   24.11    1.26
  -4  -5  -7   20.61    4.91
   4  -5   7   22.74    3.37
  -4   5  -7   14.85    3.59
   4   5   7   20.28    1.23
   4   5   7   16.94    3.74
   5  -5   7    1.62    0.31
  -5  -5  -7    2.74    2.21
   5  -5   7    1.78    1.15
   5  -5   7    2.01    0.37
   5   5   7    2.18    0.40
  -5   5  -7    3.20    1.58
   5   5   7    2.13    1.55
   6  -5   7    8.44    2.84
   6  -5   7    9.18    0.72
  -6  -5  -7    6.07    3.28
   6   5   7    8.68    0.82
  -6   5  -7   11.60    3.67
   6   5   7    7.85    3.55
   7  -5   7   14.58    0.96
   7  -5   7   12.63    3.61
  -7  -5  -7   16.95    4.89
  -7   5  -7    9.16    4.07
   7   5   7   15.19    1.17
   8  -5   7    3.08    0.49
   8  -5   7    4.25    0.49
   8  -5   7    0.40    1.92
  -8  -5  -7    7.91    4.02
  -8   5  -7    0.14    1.71
   8   5   7    4.57    3.39
   8   5   7    4.29    0.76
   9  -5   7   15.74    1.05
   9  -5   7   13.86    1.04
  -9  -5  -7    3.84    5.15
   9  -5   7   14.07    4.96
   9   5   7   14.97    6.46
  -9   5  -7    9.65    4.68
   9   5   7   13.50    1.25
   9   5   7   14.66    1.28
   9  -6  -7   32.61    1.62
   9  -6  -7   27.68    8.79
  -9  -6   7   47.61    8.29
   9   6  -7   33.63    1.92
   9   6  -7   27.20    7.77
  -9   6   7   41.18    6.20
   8  -6  -7    8.37    2.60
  -8  -6   7    4.81    3.04
   8  -6  -7    4.42    0.44
  -8   6   7    8.87    2.49
   8   6  -7    3.73    0.60
   8   6  -7    3.19    0.56
   8   6  -7    8.93    4.08
   7  -6  -7   22.29    1.09
  -7  -6   7   14.78    3.97
   7  -6  -7   21.62    4.41
   7   6  -7   21.98    1.38
  -7   6   7   24.27    3.32
   7   6  -7   24.46    1.40
   7   6  -7   21.15    5.96
   6  -6  -7    1.89    0.28
  -6  -6   7    2.45    1.65
   6  -6  -7    1.54    1.05
  -6   6   7    1.81    0.86
   6   6  -7    2.59    1.93
   6   6  -7    1.76    0.39
   6   6  -7    1.70    0.38
   5  -6  -7    1.06    0.17
   5  -6  -7    1.15    0.74
  -5  -6   7    2.11    1.66
   5   6  -7    0.99    0.23
   5   6  -7    0.97    1.66
  -5   6   7    1.71    0.80
  -5   6   7    1.24    0.23
   5   6  -7    0.99    0.25
  -4  -6   7    3.38    1.98
   4  -6  -7    1.91    0.73
   4  -6  -7    2.27    0.24
   4   6  -7    1.23    1.22
  -4   6   7    2.44    0.65
  -4   6   7    2.30    0.31
   4   6  -7    2.02    0.38
   4   6  -7    1.81    0.34
   3  -6  -7    1.68    0.24
  -3  -6   7    0.08    0.85
  -3   6   7    2.28    0.23
   3   6  -7    0.51    0.79
   3   6  -7    2.26    0.36
   3   6  -7    1.64    0.27
   2  -6  -7    0.33    0.11
  -2  -6   7    0.74    0.94
  -2  -6   7    0.43    0.14
   2   6  -7    0.35    0.12
  -2   6   7    0.73    0.13
   2   6  -7    0.37    0.16
   2   6  -7    0.68    0.76
   1  -6  -7    8.26    0.84
   1  -6  -7    9.56    1.08
  -1  -6   7    6.03    0.44
  -1  -6   7    5.87    1.82
   1  -6  -7    6.28    0.48
  -1  -6   7    6.25    0.50
   1   6  -7    6.88    0.45
  -1   6   7    6.56    0.43
   1   6  -7    6.16    2.04
   1   6  -7    5.88    0.48
   0  -6   7    4.50    0.38
   0  -6   7    4.51    0.34
   0  -6  -7    4.38    1.40
   0   6   7    3.89    1.21
   0   6  -7    4.41    0.39
   0   6   7    4.57    0.39
   0   6  -7    4.35    0.33
   0   6  -7    3.78    1.55
   1  -6   7    1.87    0.24
   1  -6   7    1.70    0.18
  -1  -6  -7    2.71    1.33
  -1   6  -7    2.93    1.27
  -1   6  -7    1.81    0.26
  -1   6  -7    2.68    1.43
   1   6   7    1.56    1.05
   1   6   7    2.03    0.32
  -1   6  -7    1.42    0.23
   2  -6   7   -0.08    0.04
   2  -6   7    0.09    0.10
  -2  -6  -7   -1.14    0.72
   2   6   7   -0.10    0.12
   2   6   7    0.48    0.66
  -2   6  -7    0.00    0.09
  -2   6  -7    0.88    1.01
  -2   6  -7    0.45    0.71
  -2   6  -7   -0.08    0.03
   3  -6   7   11.70    0.61
  -3  -6  -7    9.66    3.11
   3  -6   7   12.66    0.68
  -3   6  -7   12.30    0.78
   3   6   7    9.34    2.51
   3   6   7   12.75    0.84
  -4  -6  -7    1.06    1.23
   4  -6   7    0.49    0.13
   4  -6   7    0.20    0.11
   4  -6   7    0.13    0.11
   4   6   7   -0.10    0.11
  -4   6  -7   -0.72    0.71
  -4   6  -7    0.12    0.08
   4   6   7   -0.74    0.90
   5  -6   7   17.30    1.01
   5  -6   7   21.45    0.95
  -5  -6  -7   10.70    3.70
   5  -6   7   18.03    0.96
   5   6   7   14.23    4.02
   5   6   7   16.84    1.17
  -5   6  -7    9.18    3.07
  -6  -6  -7    3.59    2.88
   6  -6   7    1.46    0.33
  -6   6  -7    3.06    1.92
   6   6   7    1.98    2.05
   6   6   7    1.81    0.42
  -7  -6  -7   12.43    4.18
   7  -6   7   16.95    1.03
   7   6   7   16.49    4.53
   7   6   7   18.63    1.35
  -7   6  -7   11.50    4.11
  -8  -6  -7   -2.45    3.20
   8  -6   7    4.40    0.52
   8  -6   7    3.64    0.46
   8   6   7    4.20    0.78
   8   6   7    3.14    0.67
   8   6   7    2.32    3.43
  -8   6  -7    4.81    3.54
   9  -6   7   -1.61    4.19
   9  -6   7    1.67    0.37
   9  -6   7    0.77    0.29
  -9  -6  -7    5.07    4.97
  -9   6  -7    4.97    3.13
   9   6   7    0.61    4.01
   9   6   7    0.67    0.45
  -9  -7   7   -2.31    2.68
   9  -7  -7   -4.09    2.22
   9   7  -7   -0.88    4.38
  -9   7   7    2.66    2.01
   8  -7  -7    3.42    2.18
   8  -7  -7    3.20    0.39
  -8  -7   7    8.05    3.35
   8   7  -7    3.90    0.62
   8   7  -7    4.08    0.64
   8   7  -7    5.41    4.28
  -8   7   7    5.07    1.91
   7  -7  -7    6.97    0.52
   7  -7  -7    9.30    2.42
  -7  -7   7    5.50    2.60
   7   7  -7    7.37    0.75
   7   7  -7    9.83    0.81
  -7   7   7   10.43    2.21
   7   7  -7    7.75    3.59
  -6  -7   7    5.52    2.52
   6  -7  -7    6.78    1.87
   6  -7  -7    4.29    0.36
   6   7  -7    3.39    2.59
   6   7  -7    2.74    0.48
   5  -7  -7   10.99    1.36
   5  -7  -7   12.21    0.64
  -5   7   7   11.45    0.71
  -5   7   7   12.52    1.29
  -5   7   7   10.95    0.65
   5   7  -7   12.12    0.89
   5   7  -7   10.42    0.78
  -4  -7   7   -0.63    0.93
   4  -7  -7    0.16    0.10
  -4   7   7    0.07    0.10
   4   7  -7    0.12    0.12
   4   7  -7    0.10    0.09
   4   7  -7    0.22    1.35
  -3  -7   7   14.93    3.42
   3  -7  -7   15.51    0.78
   3   7  -7   15.66    3.95
  -3   7   7   16.97    0.77
   3   7  -7   16.71    1.00
   3   7  -7   17.00    0.92
   2  -7  -7    1.91    0.23
  -2  -7   7    2.08    1.13
   2   7  -7    1.91    0.29
   2   7  -7    1.95    0.34
  -2   7   7    1.88    0.20
   2   7  -7    0.25    0.98
  -1  -7   7    7.20    2.08
  -1  -7   7    8.79    0.63
  -1  -7   7    9.08    0.58
  -1   7   7    9.51    0.53
   1   7  -7   10.11    0.66
   1   7  -7    9.57    0.56
   1   7  -7    9.02    2.33
   0  -7   7    0.02    0.06
   0  -7   7    0.09    0.07
   0  -7  -7    0.34    0.51
   0   7   7    0.55    0.42
   0   7   7    0.06    0.08
   0   7  -7   -0.03    0.03
   1  -7   7   10.00    0.52
  -1  -7  -7    8.10    2.09
   1  -7   7    9.64    0.59
   1   7   7   10.64    0.69
  -1   7  -7    8.90    0.61
  -1   7  -7    9.36    0.56
  -1   7  -7    9.59    2.43
  -1   7  -7    6.45    1.98
   1   7   7    7.57    1.93
   2  -7   7    1.51    0.20
   2   7   7    1.46    1.09
   2   7   7    1.12    0.25
  -2   7  -7    0.56    0.68
  -2   7  -7    0.58    0.60
  -2   7  -7    1.99    0.31
  -3  -7  -7    3.44    1.61
   3  -7   7    4.65    0.31
  -3   7  -7    4.29    0.40
   3   7   7    3.65    1.90
   3   7   7    4.10    0.50
  -3   7  -7    3.92    1.73
   4  -7   7    1.03    0.86
   4  -7   7    1.55    0.21
   4  -7   7    1.54    0.24
   4  -7   7    1.24    0.27
  -4  -7  -7    0.50    1.39
   4   7   7    1.29    0.34
  -4   7  -7    1.22    1.17
  -4   7  -7    1.10    0.27
   4   7   7    0.58    1.48
   5  -7   7    0.68    0.17
   5  -7   7    0.81    0.19
  -5  -7  -7    3.72    2.11
   5  -7   7    0.66    0.97
   5  -7   7    0.36    0.13
   5   7   7   -0.26    1.44
  -5   7  -7   -0.95    1.20
   6  -7   7    5.27    0.44
   6  -7   7    2.16    1.33
  -6  -7  -7    5.22    3.31
   6  -7   7    4.72    0.46
   6   7   7    5.37    3.18
  -6   7  -7    4.80    2.58
   6   7   7    4.51    1.06
   7  -7   7   15.47    0.92
   7  -7   7   16.37    0.97
   7  -7   7   12.25    3.31
  -7  -7  -7   17.28    5.96
   7   7   7   16.45    1.29
  -7   7  -7    8.23    3.45
   8  -7   7    0.17    0.17
   8  -7   7    0.58    0.19
  -8  -7  -7   -3.33    2.37
   8  -7   7    0.22    2.29
   8   7   7    0.51    0.27
   8   7   7    3.16    3.52
   8   7   7    0.49    0.27
  -8   7  -7    2.08    2.74
   9  -7   7   23.94    1.41
   9  -7   7   27.85    1.46
   9   7   7   48.39   13.34
   9   7   7   29.56    1.96
   9   7   7   26.13    1.86
   8  -8  -7    0.80    1.57
  -8  -8   7   -0.90    2.31
  -8   8   7    0.51    1.36
   8   8  -7    2.32    0.46
   8   8  -7    1.85    0.45
   8   8  -7    0.36    3.37
   7  -8  -7   12.81    0.73
   7  -8  -7   11.70    2.21
  -7  -8   7   17.77    4.84
   7   8  -7   12.83    0.98
   7   8  -7   11.54    4.26
  -7   8   7   12.01    1.93
   7   8  -7   11.81    0.99
   6  -8  -7   25.40    1.10
  -6  -8   7   15.06    4.43
   6  -8  -7   24.46    1.86
  -6   8   7   26.58    1.93
   6   8  -7   27.03    6.40
   6   8  -7   24.49    1.40
   6   8  -7   24.16    1.48
  -5  -8   7    2.95    2.16
   5  -8  -7    3.31    0.30
  -5   8   7    3.17    0.33
   5   8  -7    3.76    0.44
   5   8  -7    3.59    0.61
   5   8  -7    5.51    2.38
   4  -8  -7   11.56    0.62
  -4  -8   7   11.61    3.52
   4   8  -7   11.11    0.85
   4   8  -7    7.51    3.26
  -4   8   7   11.98    0.64
   4   8  -7   12.38    0.81
  -3  -8   7    1.66    1.29
   3  -8  -7    1.26    0.21
   3   8  -7    1.79    0.36
  -3   8   7    2.22    0.21
   3   8  -7   -1.16    0.91
   3   8  -7    1.49    0.27
  -2  -8   7    0.75    0.88
   2   8  -7    1.60    0.29
   2   8  -7    0.22    1.20
  -1  -8   7    2.38    0.29
   1   8  -7    3.05    0.29
   1   8  -7    3.04    0.44
  -1   8   7    2.71    0.25
   1   8  -7    3.60    1.47
   0  -8   7   -0.07    0.07
   0  -8  -7    0.87    0.61
   0  -8   7    0.07    0.06
   0   8   7    0.59    0.47
   0   8  -7    0.13    0.10
   0   8   7    0.10    0.07
   0   8  -7   -0.02    0.06
  -1  -8  -7    7.09    1.87
   1  -8   7    9.93    0.53
   1  -8   7   10.06    0.62
   1   8   7    8.61    2.06
  -1   8  -7    8.24    2.34
  -1   8  -7    8.67    0.61
   1   8   7   10.45    0.71
  -1   8  -7    9.96    0.58
  -1   8  -7   12.70    2.90
   1   8   7    9.42    0.61
   2  -8   7    3.29    0.26
  -2  -8  -7    3.86    1.58
   2  -8   7    3.80    0.33
  -2   8  -7    3.31    0.35
   2   8   7    4.64    1.69
   2   8   7    3.03    0.37
  -2   8  -7    3.88    0.36
  -2   8  -7    1.78    1.31
  -2   8  -7    4.79    1.61
   3  -8   7   21.05    0.81
   3  -8   7   18.09    0.89
  -3  -8  -7   18.65    4.40
  -3   8  -7   18.76    1.00
  -3   8  -7   23.13    3.86
  -3   8  -7   17.41    2.87
   3   8   7   18.20    3.96
   3   8   7   17.07    1.10
   4  -8   7    1.34    0.21
  -4  -8  -7   -1.31    1.13
   4  -8   7    1.10    0.16
   4  -8   7    1.04    0.21
   4   8   7    3.10    1.92
  -4   8  -7    0.11    0.97
  -4   8  -7    1.47    0.28
   5  -8   7   20.12    3.51
   5  -8   7   20.01    0.90
   5  -8   7   20.17    0.95
   5  -8   7   19.92    1.00
  -5  -8  -7   14.92    4.14
   5   8   7   19.20    1.30
   5   8   7   22.32    5.27
  -5   8  -7   14.64    3.82
  -6  -8  -7    4.10    2.88
   6  -8   7    4.18    0.39
   6  -8   7    1.88    1.57
   6  -8   7    4.22    0.39
   6   8   7    3.66    0.62
  -6   8  -7    1.80    2.28
   7  -8   7    3.33    2.17
   7  -8   7    4.09    0.45
  -7  -8  -7    5.99    3.80
   7  -8   7    4.06    0.43
   7   8   7    4.03    0.75
   7   8   7    1.55    2.84
  -7   8  -7    5.50    3.36
   8  -8   7    2.08    4.00
  -8  -8  -7    5.09    5.90
   8  -8   7   11.02    0.76
   8   8   7   10.71    1.06
   8   8   7   14.22    7.39
   8   8   7    9.07    0.98
  -8   8  -7   15.15    8.49
  -8  -9   7   17.16    5.74
   8  -9  -7   14.31    2.10
   8   9  -7    8.95    5.78
   8   9  -7   17.23    1.28
  -8   9   7   14.66    2.30
   7  -9  -7    0.77    0.20
  -7  -9   7   -3.05    2.22
   7   9  -7    0.96    0.27
   7   9  -7    1.22    0.34
   7   9  -7    4.83    3.65
  -6  -9   7    1.77    1.73
   6  -9  -7    0.78    0.17
   6   9  -7   -1.74    2.26
   6   9  -7    1.55    0.35
   6   9  -7    1.47    0.33
  -5  -9   7    5.75    2.60
   5   9  -7   10.30    0.87
   5   9  -7   11.34    0.82
   5   9  -7    8.11    3.02
  -4  -9   7    7.16    2.72
   4   9  -7    4.72    0.53
   4   9  -7    5.05    0.49
   4   9  -7    2.44    2.13
  -3  -9   7    7.63    2.53
   3   9  -7    8.42    3.11
   3   9  -7    7.76    0.68
   3   9  -7    7.75    0.59
  -2  -9   7   12.54    3.34
   2   9  -7   12.53    0.73
  -2   9   7   12.53    0.60
   2   9  -7   12.88    0.86
  -1  -9   7    8.21    2.60
  -1  -9   7    6.84    0.52
   1   9  -7    6.69    0.47
   1   9  -7    6.12    2.67
   1   9  -7    6.38    0.56
  -1   9   7    7.19    0.44
   0  -9   7    0.45    0.17
   0  -9   7    1.12    0.20
   0  -9  -7    0.58    0.46
   0   9  -7    1.84    1.20
   0   9  -7   -0.36    0.57
   0   9   7    0.01    0.43
   0   9  -7    0.72    0.21
   0   9  -7    0.76    0.17
  -1  -9  -7    1.38    0.90
   1  -9   7    1.34    0.20
   1   9   7    0.99    0.20
   1   9   7    1.75    0.98
  -1   9  -7    1.29    0.23
  -1   9  -7    2.05    1.44
  -1   9  -7    0.60    0.81
   1   9   7    1.50    0.27
  -1   9  -7    1.79    0.33
   2  -9   7    3.88    0.27
   2  -9   7    3.54    0.33
  -2  -9  -7    3.71    1.81
  -2   9  -7    2.24    1.51
   2   9   7    2.55    1.52
  -2   9  -7    4.51    1.72
   2   9   7    3.97    0.43
  -2   9  -7    3.52    0.38
   3  -9   7    1.78    0.22
  -3  -9  -7   -0.50    1.25
   3   9   7    1.38    0.33
  -3   9  -7    1.25    0.26
  -3   9  -7    1.04    1.48
   3   9   7    0.33    1.07
  -3   9  -7    0.88    1.10
  -4  -9  -7    4.77    2.45
   4  -9   7    5.07    0.40
   4   9   7    5.69    0.62
   4   9   7    2.60    2.35
  -4   9  -7    6.68    2.69
  -4   9  -7    5.61    0.50
  -5  -9  -7    8.14    4.49
  -5   9  -7    0.49    2.49
  -5   9  -7    2.05    0.37
   5   9   7    2.15    0.46
   6  -9   7   22.86    4.69
  -6  -9  -7   22.22    5.69
  -6   9  -7   28.01    6.49
   6   9   7   31.43    7.37
   6   9   7   22.26    1.55
   7  -9   7    2.13    2.25
   7  -9   7    3.06    0.36
  -7   9  -7    2.29    3.10
   7   9   7    3.99    0.72
   7   9   7    2.70    0.57
   8  -9   7   -2.90    2.65
   8   9   7    0.56    0.40
  -8   9  -7    1.99    3.61
  -7 -10   7    2.05    3.14
   7  10  -7   -5.40    3.15
  -6 -10   7   19.87    7.74
   6  10  -7   20.26    1.28
   6  10  -7   22.07    1.43
  -5 -10   7   -2.56    1.40
   5  10  -7   -1.72    2.23
   5  10  -7    0.33    0.18
   5  10  -7   -0.08    0.13
  -4 -10   7    7.42    3.05
   4  10  -7    7.60    0.65
   4  10  -7    8.30    0.73
   4  10  -7    8.94    3.51
  -3 -10   7    0.91    1.36
   3  10  -7   -0.61    1.31
   3  10  -7    0.43    0.19
   3  10  -7    0.29    0.17
  -2 -10   7    4.70    2.21
   2  10  -7    6.08    0.47
   2  10  -7    6.67    2.53
   2  10  -7    6.41    0.59
  -1 -10   7   -0.04    0.66
  -1 -10   7    0.15    0.13
   1  10  -7    1.04    1.28
   1  10  -7    0.37    0.12
  -1  10   7    0.34    0.10
   1  10  -7    0.47    0.15
   0 -10  -7    0.09    0.42
   0 -10   7   -0.11    0.13
   0 -10   7   -0.01    0.13
   0  10  -7    0.14    0.10
   0  10   7    0.00    0.10
   0  10  -7    0.45    0.96
   0  10  -7   -0.29    0.64
   0  10   7    0.07    0.10
   0  10   7    0.91    0.53
   0  10  -7   -0.12    0.05
   1 -10   7    0.43    0.16
   1 -10   7    0.72    0.14
  -1 -10  -7   -0.21    0.75
   1  10   7   -0.01    0.13
  -1  10  -7    0.43    0.12
  -1  10  -7    0.80    1.20
  -1  10  -7    0.53    0.93
   1  10   7    1.28    0.92
   1  10   7    0.26    0.19
  -1  10  -7    0.76    0.21
   2 -10   7    6.99    0.47
  -2 -10  -7    6.60    2.33
  -2  10  -7    3.87    1.63
  -2  10  -7    7.74    0.59
  -2  10  -7    9.02    2.63
  -3 -10  -7   -0.50    1.09
  -3  10  -7    0.08    0.10
   3  10   7    0.19    0.13
  -4 -10  -7   -1.12    1.82
   4  10   7    0.54    1.42
  -4  10  -7   -0.88    1.51
  -4  10  -7    0.67    0.20
   4  10   7    0.72    0.23
  -5 -10  -7    0.06    1.95
  -5  10  -7    0.67    1.03
   5  10   7   -1.16    1.54
  -5  10  -7    0.47    0.19
  -5  10  -7    1.20    2.02
   5  10   7    0.72    0.27
   6  10   7    2.21    0.48
  -6  10  -7    1.66    2.54
   6  10   7    2.73    0.56
   7  10   7    0.04    0.22
  -7  10  -7   -1.23    2.22
   7  10   7   -0.33    0.18
   7  11  -7    7.06    0.81
   7  11  -7    6.46    0.71
  -6 -11   7    3.74    3.15
   6  11  -7   10.26    4.70
   6  11  -7    7.76    0.76
   6  11  -7    8.72    0.86
  -5 -11   7   19.87    5.03
   5  11  -7   14.35    4.53
   5  11  -7   17.24    1.23
   5  11  -7   18.45    1.14
  -4 -11   7    3.30    2.45
   4  11  -7    6.01    0.64
   4  11  -7    5.05    0.53
  -3 -11   7    9.44    3.15
   3  11  -7    6.07    0.65
   3  11  -7    5.93    0.52
  -2 -11   7   -0.11    1.13
   2  11  -7    1.61    0.36
   2  11  -7    1.35    0.24
  -1 -11   7   -0.40    0.67
   1  11  -7    0.31    0.16
   1  11  -7    0.17    0.14
   0 -11  -7    1.30    0.62
   0 -11   7    1.68    0.28
   0  11  -7    1.12    0.28
   0  11   7    1.94    0.29
   0  11  -7    1.50    0.24
   0  11  -7    0.91    1.18
   0  11   7    2.84    0.88
   0  11   7    1.68    0.28
  -1 -11  -7   -1.12    0.80
   1 -11   7    0.17    0.14
   1  11   7    0.05    0.83
   1  11   7    0.62    0.20
  -1  11  -7    0.38    0.90
  -1  11  -7    0.36    0.17
  -2 -11  -7    6.82    2.72
  -2  11  -7    8.08    0.64
  -2  11  -7    7.90    2.68
   2  11   7    7.52    0.66
  -3  11  -7    0.84    0.24
   3  11   7    1.09    0.30
  -3  11  -7    0.71    1.30
  -4 -11  -7    8.98    3.51
  -4  11  -7    7.98    3.21
  -4  11  -7    6.54    2.07
  -4  11  -7   10.86    0.76
   4  11   7   11.45    3.83
   4  11   7   10.48    0.93
   5  11   7    0.96    0.32
   5  11   7    1.03    0.33
  -5  11  -7    1.83    0.34
  -5  11  -7   -0.99    2.31
  -6  11  -7   12.56    3.86
   6  11   7   12.32    1.12
   6  11   7   14.58    1.21
   7  11   7    7.14    1.06
  -7  11  -7   -1.07    3.14
   7  11   7    6.92    1.30
   6  12  -7    3.54    0.66
   6  12  -7    3.45    0.56
   5  12  -7    0.88    0.30
   5  12  -7    0.77    0.22
  -4 -12   7    8.64    3.75
   4  12  -7    4.90    0.51
   4  12  -7    5.72    0.63
   4  12  -7   10.19    4.30
  -3 -12   7    3.41    2.34
   3  12  -7    5.50    0.63
   3  12  -7    5.53    0.50
   3  12  -7    5.65    2.71
  -2 -12   7    4.38    2.26
   2  12  -7    8.79    0.75
   2  12  -7    4.14    2.43
   2  12  -7    8.33    0.59
  -1 -12   7    3.23    0.43
   1  12  -7    2.46    0.45
   1  12  -7    1.90    1.33
   1  12  -7    2.33    0.27
   0 -12   7    5.61    0.46
   0  12  -7    3.06    2.01
   0  12   7    5.69    0.47
   0  12   7    5.49    0.44
   0  12  -7    4.81    0.51
   0  12  -7    5.01    0.39
   0  12  -7    3.65    2.20
  -1 -12  -7    0.45    1.00
  -1  12  -7    0.29    1.30
   1  12   7    2.09    1.28
   1  12   7    0.98    0.26
  -1  12  -7    1.35    0.32
  -1  12  -7    2.20    1.11
  -2 -12  -7    4.17    1.75
   2  12   7    4.77    0.54
  -2  12  -7    3.56    2.15
  -2  12  -7    3.01    1.91
  -2  12  -7    4.21    0.46
   2  12   7    2.04    1.73
  -3  12  -7    4.41    0.46
   3  12   7    4.78    0.57
  -3  12  -7    4.73    2.45
  -4  12  -7    1.60    0.32
   4  12   7    1.76    0.35
  -4  12  -7   -1.78    1.74
   5  12   7   10.21    0.98
  -5  12  -7    4.49    2.93
  -5  12  -7   10.54    0.79
   5  12   7    8.08    0.86
   6  12   7    8.40    0.96
  -6  12  -7    4.90    3.17
   6  12   7    8.54    0.93
   5  13  -7    6.58    0.64
   5  13  -7    6.72    1.34
   4  13  -7   -0.21    0.13
   4  13  -7   -0.01    0.13
   3  13  -7    1.55    0.35
   3  13  -7    1.83    0.31
   2  13  -7    1.12    0.38
   2  13  -7    0.54    0.18
   1  13  -7    0.11    0.14
   1  13  -7    0.28    0.14
   0  13   7    1.43    0.24
   0  13   7    1.78    0.29
   0  13  -7    1.64    1.35
   0  13  -7    1.17    0.52
  -1  13  -7    1.20    0.31
  -1  13  -7    0.25    1.58
   1  13   7    1.36    0.30
   2  13   7    3.63    0.56
   2  13   7    2.77    0.44
  -2  13  -7    2.62    0.44
  -2  13  -7    1.26    1.74
   3  13   7    2.26    0.43
  -3  13  -7   -1.45    1.61
   3  13   7    1.98    0.44
  -3  13  -7    1.85    0.36
  -4  13  -7    3.02    2.32
  -5  13  -7    0.67    0.28
   5  13   7    1.39    0.33
   5  13   7    1.31    0.35
  -5  13  -7   -1.34    3.53
   4  14  -7    2.58    0.40
   4  14  -7    1.79    0.51
   3  14  -7    0.24    0.23
   3  14  -7    0.59    0.20
   2  14  -7    1.41    0.37
   2  14  -7    1.16    0.23
   1  14  -7    0.85    1.50
   1  14  -7    0.93    0.24
   1  14  -7    0.93    0.26
   0  14   7    1.04    0.32
   0  14  -7    0.41    0.17
   0  14  -7   -1.45    1.45
  -1  14  -7    1.31    1.82
   1  14   7    1.00    0.25
  -2  14  -7    0.25    0.14
   2  14   7    0.28    0.16
  -2  14  -7   -0.93    1.81
   2  14   7    0.53    0.21
   3  14   7    6.11    0.66
  -3  14  -7    6.09    0.61
  -3  14  -7   10.76    3.54
   3  14   7    6.28    0.94
  -4  14  -7    1.86    2.92
   4  14   7   -0.19    0.23
   4  14   7    0.35    0.23
  -4  14  -7    0.68    0.22
   1  15  -7    1.77    2.55
   0  15  -7    4.61    2.70
   0  15  -7    4.22    0.63
   0  15   7    4.60    0.76
   1  15   7    2.68    0.45
  -1  15  -7    2.49    0.39
  -1  15  -7    3.00    2.16
  10   0  -8   85.03    3.53
  10   0  -8   83.26    3.26
   9   0  -8    1.63    3.38
  -9   0   8    3.35    2.48
   8   0  -8  230.01    8.01
  -8   0   8  227.72   15.71
   8   0  -8  230.61    7.79
   8   0  -8  239.80   17.77
   7   0  -8    0.04    0.11
   7   0  -8   -0.36    1.76
  -7   0   8    2.09    1.50
   7   0  -8   -0.18    0.10
  -6   0   8  149.01   10.72
   6   0  -8  161.39    5.46
   6   0  -8  165.30    5.62
   5   0  -8    0.45    0.16
   5   0  -8   -0.51    0.60
   5   0  -8    0.09    0.06
  -5   0   8    0.84    0.79
   4   0  -8   12.93    0.67
   4   0  -8   12.39    0.77
  -4   0   8   17.69    2.90
   3   0  -8    0.42    0.13
  -3   0   8    0.29    0.12
   3   0  -8    0.30    0.08
  -3   0   8   -0.02    0.54
  -3   0   8    0.90    0.20
  -2   0   8  510.79   16.98
  -2   0   8  540.69   16.97
  -2   0   8  551.42   21.45
   1   0  -8    0.17    0.40
   1   0  -8   -0.01    0.04
  -1   0   8    0.01    0.04
  -1   0   8    0.13    0.07
   1   0  -8    0.11    0.07
   1   0   8    0.07    0.07
   1   0   8   -0.36    0.30
  -1   0  -8   -0.34    0.27
   1   0   8    0.01    0.04
  -1   0  -8    0.10    0.09
   2   0   8  534.68   18.07
   2   0   8  533.89   17.91
  -2   0  -8  591.44   25.14
   2   0   8  612.87   24.47
   3   0   8    1.16    0.20
  -3   0  -8    1.47    1.04
  -4   0  -8   22.55    5.00
   4   0   8   22.24    4.84
  -5   0  -8   -0.08    1.06
   5   0   8    0.47    0.88
   5   0   8    0.09    0.12
   6   0   8  149.27    5.49
  -6   0  -8  128.08   12.17
   6   0   8  152.64   11.97
   7   0   8    0.03    0.13
   7   0   8   -1.55    1.50
  -7   0  -8   -0.09    2.09
   8   0   8  247.63    8.53
   8   0   8  227.94   17.43
  -8   0  -8  211.46   18.34
   9   0   8    0.80    3.00
  -9   0  -8   -5.62    2.75
   9   0   8    0.04    0.14
  10   0   8   87.45   12.53
  10   0   8   88.15    3.93
 -10   0  -8   56.63   12.10
  10   0   8   86.28    3.85
  10  -1  -8   18.15    0.99
  10  -1  -8   17.11    1.16
  10   1  -8   17.97    1.11
  -9  -1   8    0.54    2.28
   9  -1  -8    1.82    3.38
   9   1  -8    1.50    3.41
  -9   1   8    2.09    2.25
   8  -1  -8   -2.01    1.80
   8  -1  -8    2.03    0.38
  -8  -1   8    1.88    1.89
   8  -1  -8    1.34    0.27
   8   1  -8    1.34    0.33
  -8   1   8    1.25    1.77
   8   1  -8    1.16    0.27
   8   1  -8    0.72    2.69
   7  -1  -8    4.07    0.37
   7  -1  -8    4.07    0.44
   7  -1  -8    4.71    2.75
  -7  -1   8    3.03    2.21
   7   1  -8    4.42    0.48
   7   1  -8    2.63    2.32
  -7   1   8    3.56    1.65
   7   1  -8    4.39    0.44
   6  -1  -8   80.54    8.21
  -6  -1   8   79.19    7.57
   6  -1  -8   81.95    3.01
   6  -1  -8   89.36    3.24
  -6   1   8   85.46    7.36
   6   1  -8   87.21    3.29
   6   1  -8   85.90    8.68
   6   1  -8   86.94    3.19
   5  -1  -8   58.73    2.26
   5  -1  -8   49.02    5.69
   5  -1  -8   56.36    2.08
  -5  -1   8   57.13    5.77
  -5   1   8   60.06    5.56
   5   1  -8   47.72    5.88
   5   1  -8   57.96    2.30
   5   1  -8   60.24    2.24
   4  -1  -8  415.33   19.98
   4  -1  -8  383.53   12.97
  -4  -1   8  448.70   20.02
   4  -1  -8  383.08   12.81
  -4   1   8  447.83   18.91
   4   1  -8  416.39   20.83
  -4   1   8  402.85   13.04
   4   1  -8  383.63   13.02
   4   1  -8  379.36   12.95
   3  -1  -8    0.80    0.18
  -3  -1   8    0.95    0.61
  -3  -1   8    0.36    0.11
   3  -1  -8    0.67    0.12
   3  -1  -8    0.87    0.90
  -3  -1   8    1.05    0.22
   3   1  -8    0.53    0.14
  -3   1   8    0.09    0.61
   3   1  -8    0.32    0.12
   3   1  -8    0.77    0.87
  -3   1   8    0.63    0.15
  -3   1   8    0.55    0.12
  -2  -1   8  292.62    9.63
   2  -1  -8  338.19   14.36
   2  -1  -8  281.11    9.43
  -2  -1   8  306.36   14.14
   2  -1  -8  287.78    9.58
   2   1  -8  323.59   15.06
  -2   1   8  320.17   13.43
  -2   1   8  282.42    9.54
   2   1  -8  282.36    9.59
   2   1  -8  282.18    9.54
  -1  -1   8    0.55    0.13
  -1  -1   8    0.47    0.12
   1  -1  -8    0.25    0.07
   1  -1  -8    0.43    0.13
  -1  -1   8    0.44    0.50
   1  -1  -8    0.67    0.45
   1  -1  -8    1.31    0.76
  -1   1   8    0.41    0.10
   1   1  -8    0.16    0.08
   1   1  -8    0.48    0.12
  -1   1   8    0.63    0.13
   1   1  -8    0.91    0.63
   0  -1  -8    0.29    0.11
   0  -1   8    0.15    0.08
   0  -1  -8   -0.38    0.32
   0  -1   8    0.06    0.05
   0   1  -8    0.15    0.22
   0   1   8    0.06    0.30
   0   1   8    0.17    0.08
   0   1   8    0.04    0.05
   0   1  -8    0.03    0.04
   0   1  -8    0.07    0.07
   0   1  -8   -0.20    0.33
   1  -1   8    0.81    0.16
   1  -1   8    0.89    0.73
  -1  -1  -8    0.62    0.19
   1  -1   8    1.14    0.21
  -1  -1  -8    1.62    0.91
  -1   1  -8    0.41    0.16
   1   1   8    0.74    0.18
  -1   1  -8    0.65    0.14
   1   1   8    0.87    0.16
   1   1   8    0.75    0.63
  -1   1  -8    1.28    0.87
   2  -1   8  288.28   14.39
   2  -1   8  260.13    8.81
   2  -1   8  262.42    9.12
  -2  -1  -8  284.70   15.21
   2   1   8  314.12   14.96
  -2   1  -8  275.80   14.84
   2   1   8  255.90    9.00
  -2   1  -8  266.31    9.08
   2   1   8  263.61    8.81
  -3  -1  -8   -0.29    0.60
   3  -1   8   -0.02    0.79
   3  -1   8    0.67    0.21
   3   1   8    0.38    0.14
   3   1   8    0.77    0.78
  -3   1  -8    0.65    1.01
  -4  -1  -8  395.24   22.70
   4  -1   8  430.62   21.63
   4   1   8  449.39   22.41
  -4   1  -8  402.85   22.81
   5  -1   8   50.09    2.23
   5  -1   8   45.70    5.62
  -5  -1  -8   42.85    6.04
  -5   1  -8   48.02    6.50
   5   1   8   49.58    2.25
   5   1   8   43.63    5.82
  -6  -1  -8   83.91    9.65
   6  -1   8   93.86    9.07
   6  -1   8   95.08    3.78
  -6   1  -8   84.00    9.58
   6   1   8   95.14    9.36
   6   1   8   95.54    3.84
   7  -1   8    3.05    0.56
  -7  -1  -8    5.17    3.78
   7  -1   8    3.21    2.08
   7   1   8    0.40    1.66
  -7   1  -8   -0.37    2.09
   7   1   8    2.93    0.60
  -8  -1  -8    2.23    3.28
   8  -1   8    2.17    2.49
  -8   1  -8    1.53    2.32
   8   1   8   -1.43    2.45
   9  -1   8    4.80    3.22
   9   1   8    2.81    4.37
  -9   1  -8   -0.88    3.05
  10  -1   8   17.39    1.34
  10  -1   8   20.79    1.47
 -10  -1  -8   12.66    5.80
  10  -1   8   20.72    7.79
  10   1   8   21.36    8.04
  10   1   8   16.59    2.46
 -10   1  -8   10.34    4.99
  10  -2  -8    2.48    0.45
  10   2  -8    2.68    0.48
  10   2  -8    2.70    0.46
   9  -2  -8   11.40    4.45
  -9  -2   8   16.82    5.18
   9  -2  -8   15.46    1.05
   9  -2  -8   18.31    0.86
   9   2  -8   19.39    1.24
   9   2  -8   17.81    1.10
  -9   2   8   11.05    3.87
   9   2  -8   10.98    4.85
   8  -2  -8    0.99    0.21
   8  -2  -8    0.48    1.78
   8  -2  -8    0.50    0.30
  -8  -2   8    1.95    2.00
   8   2  -8    0.67    0.25
   8   2  -8    0.88    2.21
  -8   2   8    0.60    1.48
   8   2  -8    0.97    0.25
   7  -2  -8    3.43    2.02
   7  -2  -8    4.25    0.43
   7  -2  -8    3.21    0.29
  -7  -2   8    0.20    1.51
   7   2  -8    3.52    0.52
   7   2  -8    3.74    2.23
   7   2  -8    3.46    0.40
  -7   2   8    6.84    2.35
   6  -2  -8   14.12    0.66
   6  -2  -8   13.52    0.83
   6  -2  -8   13.72    3.61
  -6  -2   8   11.72    3.16
   6   2  -8   14.32    0.88
  -6   2   8   15.33    3.43
   6   2  -8   14.14    0.91
   6   2  -8   17.99    4.69
   5  -2  -8   39.78    1.64
   5  -2  -8   38.43    1.41
   5  -2  -8   37.36    4.80
  -5  -2   8   36.69    4.81
   5   2  -8   39.42    1.68
   5   2  -8   39.04    5.40
  -5   2   8   37.96    4.15
   5   2  -8   37.71    1.71
   4  -2  -8   39.61    1.65
   4  -2  -8   39.74    1.46
   4  -2  -8   44.32    5.09
  -4  -2   8   47.46    5.36
  -4   2   8   45.44    4.45
   4   2  -8   40.83    1.75
   4   2  -8   47.14    6.03
   4   2  -8   40.67    2.25
  -4   2   8   42.83    1.70
  -3  -2   8  172.31    5.98
   3  -2  -8  170.79    5.82
  -3  -2   8  194.14   11.16
   3  -2  -8  204.66   10.71
  -3   2   8  162.05    5.84
  -3   2   8  168.82    5.78
  -3   2   8  190.37    9.42
   3   2  -8  166.54    5.85
   3   2  -8  165.01    5.87
   3   2  -8  193.73   11.95
  -2  -2   8   16.37    2.69
  -2  -2   8   14.40    0.75
   2  -2  -8   13.50    0.70
  -2  -2   8   13.02    0.74
   2  -2  -8   15.82    2.28
  -2   2   8   13.20    0.63
   2   2  -8   13.11    0.70
   2   2  -8   11.46    2.71
   2   2  -8   13.86    0.72
  -2   2   8   14.22    0.71
  -2   2   8   17.28    2.15
  -1  -2   8   31.34    3.58
  -1  -2   8   35.80    1.36
   1  -2  -8   37.23    3.32
   1  -2  -8   31.79    3.03
   1  -2  -8   31.39    1.34
  -1   2   8   33.27    1.34
   1   2  -8   32.26    1.33
  -1   2   8   33.02    1.24
   1   2  -8   38.59    4.09
   1   2  -8   31.85    1.32
   0  -2   8    1.26    0.19
   0  -2  -8    1.82    0.88
   0  -2  -8    1.82    0.27
   0  -2   8    1.29    0.21
   0   2  -8    0.69    0.15
   0   2  -8    0.82    0.16
   0   2  -8    0.24    0.50
   0   2   8    0.56    0.14
   0   2   8    0.99    0.16
   0   2  -8    0.54    0.56
   0   2   8    0.62    0.55
  -1  -2  -8   20.98    1.13
  -1  -2  -8   25.11    3.37
   1  -2   8   23.38    1.11
   1  -2   8   21.26    3.04
   1  -2   8   21.58    0.99
  -1   2  -8   22.35    0.98
  -1   2  -8   21.21    3.16
   1   2   8   21.87    1.08
  -1   2  -8   21.69    1.06
   1   2   8   27.82    3.29
   2  -2   8   10.16    0.58
   2  -2   8    9.69    0.61
   2  -2   8   15.21    3.25
  -2  -2  -8   10.96    2.92
   2   2   8    9.62    0.69
  -2   2  -8    9.85    0.69
  -2   2  -8   10.88    2.99
   2   2   8    9.88    2.38
  -2   2  -8    9.53    0.57
   3  -2   8  185.29   11.41
   3  -2   8  160.45    5.67
  -3  -2  -8  175.39   12.45
   3  -2   8  160.30    5.79
   3   2   8  177.53   11.77
  -3   2  -8  175.77   12.17
  -4  -2  -8   40.72    6.22
   4  -2   8   40.14    5.28
   4  -2   8   35.99    2.28
  -4   2  -8   37.52    5.67
   4   2   8   37.31    5.49
   5  -2   8   42.06    5.36
   5  -2   8   41.80    1.97
  -5  -2  -8   44.60    6.31
   5   2   8   41.45    2.02
  -5   2  -8   35.42    5.66
   5   2   8   36.66    5.01
   6  -2   8   12.94    3.64
  -6  -2  -8   11.26    3.86
   6  -2   8   13.99    1.01
  -6   2  -8   17.42    4.93
   6   2   8   13.08    1.03
   6   2   8   11.63    3.75
   7  -2   8    2.35    0.51
   7  -2   8    1.54    1.52
  -7  -2  -8    0.12    2.29
  -7   2  -8    2.85    2.50
   7   2   8    1.83    0.46
   7   2   8    2.44    2.41
   8  -2   8    1.18    0.30
   8  -2   8    4.46    2.92
  -8  -2  -8   -2.75    2.15
  -8   2  -8    5.15    2.78
   8   2   8    3.65    2.92
   8   2   8    1.53    0.42
  -9  -2  -8    5.45    4.88
   9  -2   8   14.63    1.14
   9  -2   8    8.36    4.06
  -9   2  -8   17.00    5.39
   9   2   8   12.90    1.17
   9   2   8   16.22    5.14
  10  -2   8    3.92    0.66
 -10  -2  -8    5.74    4.71
  10  -2   8    2.31    0.51
  10   2   8    3.55    0.77
  10   2   8    2.28    0.52
  10   2   8    2.54    4.98
   9  -3  -8   38.11    7.89
  -9  -3   8   60.72    8.74
   9  -3  -8   60.53    2.54
   9   3  -8   63.70    2.77
  -9   3   8   59.54    7.51
   9   3  -8   59.49    2.62
   9   3  -8   52.00   10.81
   8  -3  -8    4.23    0.45
  -8  -3   8    6.18    3.14
   8  -3  -8    2.85    2.65
   8   3  -8    4.20    0.50
  -8   3   8    0.85    1.91
   8   3  -8    3.82    0.58
   8   3  -8    5.41    3.00
   7  -3  -8  172.58    6.11
   7  -3  -8  180.64   13.39
  -7  -3   8  182.51   13.49
  -7   3   8  189.08   11.94
   7   3  -8  178.31   14.61
   7   3  -8  179.42    6.27
   7   3  -8  168.49    6.53
  -6  -3   8   36.88    5.44
   6  -3  -8   41.91    1.78
   6  -3  -8   47.77    5.70
  -6   3   8   45.32    4.86
   6   3  -8   37.89    5.61
   6   3  -8   41.54    1.89
   6   3  -8   43.53    1.95
   5  -3  -8   52.72    5.47
   5  -3  -8   48.82    1.93
  -5  -3   8   41.40    5.26
  -5   3   8   49.56    4.54
   5   3  -8   49.02    2.06
   5   3  -8   49.88    2.09
   5   3  -8   45.24    5.88
   4  -3  -8    1.50    0.25
  -4  -3   8    2.65    1.31
   4   3  -8    1.22    1.05
  -4   3   8    1.77    0.28
  -4   3   8    2.62    1.07
   4   3  -8    1.42    0.26
   4   3  -8    2.00    0.33
   3  -3  -8  137.04    8.09
   3  -3  -8  116.80    4.18
  -3  -3   8  134.99    9.29
  -3   3   8  119.88    4.23
   3   3  -8  118.29    4.30
   3   3  -8  139.61   10.09
   3   3  -8  114.19    4.27
  -3   3   8  120.97    4.13
  -3   3   8  137.72    7.12
  -2  -3   8   26.12    1.20
   2  -3  -8   24.69    1.08
  -2  -3   8   25.35    1.15
   2  -3  -8   29.12    3.63
  -2  -3   8   29.13    3.70
   2  -3  -8   28.21    2.60
  -2   3   8   23.21    1.06
   2   3  -8   25.82    1.12
   2   3  -8   23.81    1.12
   2   3  -8   22.94    3.53
  -2   3   8   25.13    0.98
  -1  -3   8  724.12   27.90
   1  -3  -8  758.21   25.54
   1  -3  -8  745.85   25.52
   1  -3  -8  659.85   22.12
  -1  -3   8  669.50   22.15
   1   3  -8  690.32   27.94
  -1   3   8  686.36   22.09
  -1   3   8  663.99   21.93
   0  -3  -8    0.70    0.59
   0  -3   8   -0.03    0.03
   0  -3  -8    0.05    0.07
   0  -3   8    0.05    0.07
   0   3  -8   -0.23    0.49
   0   3   8   -0.29    0.21
   0   3  -8    0.01    0.04
   0   3   8    0.05    0.04
   0   3  -8   -0.06    0.45
  -1  -3  -8  719.25   27.62
   1  -3   8  676.72   21.29
   1  -3   8  642.28   21.24
  -1  -3  -8  641.44   21.51
   1   3   8  748.80   26.96
   1   3   8  617.93   21.69
  -1   3  -8  634.47   21.33
  -1   3  -8  717.84   27.75
  -2  -3  -8   26.03    4.00
   2  -3   8   26.90    1.16
   2  -3   8   27.06    3.71
   2  -3   8   26.51    1.15
  -2   3  -8   26.28    1.28
  -2   3  -8   25.65    1.14
   2   3   8   27.55    3.77
  -2   3  -8   30.60    4.12
   2   3   8   24.15    1.29
  -3  -3  -8  127.05   10.53
   3  -3   8  119.35    4.50
   3  -3   8  127.50    4.46
   3  -3   8  155.83   10.11
   3   3   8  143.00   10.53
  -3   3  -8  127.62   10.39
  -4  -3  -8    0.07    1.07
   4  -3   8    0.45    0.16
   4  -3   8   -1.05    0.54
   4   3   8    2.53    1.35
   4   3   8    0.89    0.26
  -4   3  -8    0.57    0.80
   5  -3   8   38.34    5.26
   5  -3   8   42.49    2.00
  -5  -3  -8   39.47    5.98
   5   3   8   44.70    2.13
  -5   3  -8   49.11    6.71
   5   3   8   42.61    5.70
   6  -3   8   41.83    8.64
   6  -3   8   46.91    2.20
  -6  -3  -8   45.78    6.90
   6   3   8   46.89    2.32
   6   3   8   48.28    6.75
  -6   3  -8   46.06    7.96
   7  -3   8  162.19   12.84
   7  -3   8  162.34    6.01
  -7  -3  -8  153.42   14.33
  -7   3  -8  143.09   13.92
   7   3   8  162.09   13.85
   7   3   8  176.06    6.30
  -8  -3  -8    2.36    2.49
   8   3   8    6.67    2.99
  -8   3  -8   -1.42    2.06
   8   3   8    3.72    0.67
   9  -3   8   67.65    3.04
   9  -3   8   70.97    9.46
   9  -3   8   63.68    3.05
  -9  -3  -8   57.26    9.11
   9   3   8   71.60    3.34
   9   3   8   62.86    9.85
  -9   3  -8   61.01    9.89
   9  -4  -8    9.92    4.13
   9  -4  -8    2.52    0.44
  -9  -4   8    0.62    2.90
   9   4  -8    1.79    0.39
   9   4  -8    5.27    4.83
  -9   4   8    2.97    2.22
   9   4  -8    2.44    0.51
   8  -4  -8    0.47    0.17
   8  -4  -8    2.32    2.63
   8   4  -8    0.27    0.20
  -8   4   8    0.88    1.35
   8   4  -8    0.48    0.19
   8   4  -8    3.28    2.56
   7  -4  -8   62.01    7.60
   7  -4  -8   74.74    2.89
  -7  -4   8   78.44    8.61
  -7   4   8   76.49    6.80
   7   4  -8   77.35    3.13
   7   4  -8   72.83    8.89
   7   4  -8   80.46    3.17
  -6  -4   8    9.57    3.10
   6  -4  -8    9.65    0.63
   6  -4  -8   10.57    3.06
  -6   4   8    6.71    1.92
   6   4  -8   12.10    3.69
   6   4  -8    9.14    0.73
   6   4  -8   10.25    0.77
   5  -4  -8  375.39   18.28
  -5  -4   8  379.23   19.83
   5  -4  -8  398.51   12.70
  -5   4   8  414.67   12.79
  -5   4   8  380.03   16.49
   5   4  -8  370.61   20.92
   5   4  -8  403.98   12.94
   5   4  -8  404.89   12.95
  -4  -4   8   14.93    3.47
   4  -4  -8   16.12    0.82
   4  -4  -8   17.70    2.65
   4   4  -8   16.64    0.93
  -4   4   8   16.03    0.87
  -4   4   8   16.74    2.07
   4   4  -8   16.86    0.96
   4   4  -8   15.30    3.89
  -4   4   8   17.00    0.81
   3  -4  -8  489.83   16.41
   3  -4  -8  569.71   20.97
  -3  -4   8  525.63   23.69
   3   4  -8  573.08   25.34
   3   4  -8  479.18   16.52
  -3   4   8  493.64   16.29
   3   4  -8  484.91   16.57
  -3   4   8  567.17   19.48
  -3   4   8  491.09   16.43
   2  -4  -8    0.22    0.08
  -2  -4   8   -0.23    0.51
   2  -4  -8   -0.08    0.33
  -2  -4   8    0.12    0.07
   2  -4  -8    0.20    0.44
  -2   4   8    0.17    0.06
  -2   4   8    0.08    0.07
   2   4  -8    0.39    0.12
   2   4  -8    0.08    0.06
   2   4  -8   -0.72    0.49
   1  -4  -8  271.96    9.10
   1  -4  -8  295.45   11.99
  -1  -4   8  284.89   14.40
  -1  -4   8  268.12    9.05
  -1  -4   8  266.52    9.13
   1  -4  -8  303.24   11.73
  -1   4   8  272.88    9.03
   1   4  -8  263.74    9.09
   1   4  -8  273.65    9.04
   1   4  -8  305.56   14.97
   0  -4   8   10.53    0.64
   0  -4   8   11.32    0.60
   0  -4  -8   11.26    1.96
   0  -4  -8   10.93    0.70
   0   4  -8   15.46    3.24
   0   4   8   10.36    1.75
   0   4  -8   14.06    3.12
   0   4  -8   11.16    0.62
   0   4  -8   11.53    0.65
   0   4   8   12.26    0.68
   1  -4   8  252.42    8.21
   1  -4   8  245.58    8.28
  -1  -4  -8  257.58   13.61
  -1   4  -8  271.75   13.59
   1   4   8  249.23    8.43
  -1   4  -8  234.64    8.29
  -1   4  -8  239.57    8.26
  -1   4  -8  271.97   13.95
   1   4   8  281.47   13.15
   2  -4   8    0.61    0.16
   2  -4   8    0.31    0.10
  -2  -4  -8   -0.63    0.52
   2  -4   8   -0.25    0.37
   2   4   8    0.33    0.60
  -2   4  -8    1.23    0.25
  -2   4  -8    0.05    0.07
  -2   4  -8    0.35    0.78
   2   4   8    0.19    0.11
   3  -4   8  456.20   15.57
  -3  -4  -8  513.35   24.99
   3  -4   8  476.64   15.52
   3  -4   8  544.51   23.00
   3   4   8  528.30   24.21
  -3   4  -8  455.88   23.46
  -3   4  -8  448.57   16.16
  -4  -4  -8    7.14    3.03
   4  -4   8   11.67    0.72
   4  -4   8    7.51    2.31
   4   4   8   11.08    0.82
  -4   4  -8    7.00    2.65
   4   4   8    6.86    2.60
  -5  -4  -8  328.19   28.72
   5  -4   8  397.99   19.76
   5  -4   8  400.34   12.79
   5   4   8  407.32   12.99
   5   4   8  363.90   27.14
  -5   4  -8  362.17   21.32
  -6  -4  -8    8.21    3.79
   6  -4   8    7.04    2.43
   6  -4   8    7.20    0.68
   6   4   8   11.35    3.59
   6   4   8    7.58    0.79
  -6   4  -8    8.17    3.14
   7  -4   8   88.09    3.53
  -7  -4  -8   76.90   10.09
   7  -4   8   81.18    8.80
   7   4   8   88.39   10.02
   7   4   8   90.19    3.81
  -7   4  -8   76.19    9.84
  -8  -4  -8   -1.18    2.58
   8  -4   8   -0.03    1.98
   8  -4   8    0.47    0.26
  -8   4  -8    3.17    2.86
   8   4   8    0.51    0.30
   8   4   8    0.57    2.40
   9  -4   8    4.07    6.42
   9  -4   8    3.05    0.55
   9  -4   8    4.44    0.65
  -9  -4  -8    0.55    3.31
   9   4   8    3.31    0.68
   9   4   8    2.57    0.60
   9   4   8    1.25    3.64
   9  -5  -8    3.19    3.20
  -9  -5   8    5.30    4.40
   9  -5  -8    9.65    0.72
   9   5  -8   10.39    0.97
   9   5  -8   10.06    6.72
   9   5  -8   10.76    0.91
  -9   5   8    9.24    3.04
  -8  -5   8   25.30    6.15
   8  -5  -8   28.96    6.11
   8  -5  -8   29.72    1.43
  -8   5   8   29.81    4.25
   8   5  -8   29.68    1.65
   8   5  -8   34.20    8.39
   8   5  -8   29.65    1.67
   7  -5  -8   59.70    2.32
  -7  -5   8   50.67    7.30
   7  -5  -8   61.88    6.97
  -7   5   8   53.21    5.31
   7   5  -8   58.54    2.59
   7   5  -8   52.46    8.04
   7   5  -8   60.69    2.61
  -6  -5   8    5.35    2.39
   6  -5  -8    6.71    0.50
   6  -5  -8    6.50    2.61
   6   5  -8    6.48    0.61
   6   5  -8    7.74    3.20
   6   5  -8    6.95    0.64
  -6   5   8    4.09    1.45
   5  -5  -8   26.13    1.18
   5  -5  -8   22.16    3.47
  -5  -5   8   28.51    4.59
   5   5  -8   23.37    5.11
   5   5  -8   25.71    1.36
  -5   5   8   28.10    1.22
   5   5  -8   25.29    1.37
  -5   5   8   27.68    2.88
   4  -5  -8   33.93    3.47
   4  -5  -8   37.30    1.50
  -4  -5   8   39.72    4.99
   4   5  -8   38.11    1.73
  -4   5   8   36.14    2.83
   4   5  -8   30.62    4.86
   4   5  -8   37.56    1.67
  -4   5   8   39.29    1.46
  -4   5   8   37.21    1.57
   3  -5  -8   15.43    1.48
  -3  -5   8   13.18    2.98
   3  -5  -8   17.12    0.82
   3  -5  -8   18.02    1.99
   3   5  -8   17.00    0.91
   3   5  -8   19.50    4.12
   3   5  -8   16.80    0.96
  -2  -5   8   43.19    4.97
   2  -5  -8   43.85    2.96
   2  -5  -8   35.80    1.52
  -2  -5   8   35.52    1.61
   2  -5  -8   45.61    2.83
   2   5  -8   37.23    1.63
  -2   5   8   35.59    1.47
   2   5  -8   36.35    1.54
   2   5  -8   36.21    4.86
   1  -5  -8  126.04    4.60
   1  -5  -8  153.06    7.23
   1  -5  -8  148.52    6.54
  -1  -5   8  131.39    4.55
  -1  -5   8  128.52    4.64
  -1  -5   8  149.89    9.66
   1   5  -8  136.96    9.53
  -1   5   8  127.79    4.51
   1   5  -8  123.99    4.50
   1   5  -8  129.69    4.61
   0  -5   8    0.38    0.12
   0  -5  -8    0.81    0.62
   0  -5  -8    0.41    0.14
   0  -5   8    0.37    0.13
   0   5   8    0.22    0.11
   0   5   8    0.01    0.42
   0   5  -8    0.31    0.11
   0   5  -8    0.51    0.13
   0   5  -8    0.66    0.74
   0   5  -8    0.67    0.71
   1  -5   8  124.34    4.25
   1  -5   8  126.24    4.36
  -1  -5  -8  132.22    8.98
  -1   5  -8  146.31    9.25
  -1   5  -8  143.72    9.49
   1   5   8  130.30    8.25
   1   5   8  122.34    4.48
  -1   5  -8  122.26    4.35
  -1   5  -8  115.81    4.33
   2  -5   8   27.99    1.22
   2  -5   8   28.50    1.16
  -2  -5  -8   27.55    4.35
  -2   5  -8   27.23    1.23
  -2   5  -8   33.12    4.46
   2   5   8   26.39    1.60
   2   5   8   28.47    4.08
  -2   5  -8   26.80    1.30
   3  -5   8   21.75    1.01
  -3  -5  -8   15.06    3.57
   3  -5   8   20.08    3.08
   3  -5   8   21.57    1.01
  -3   5  -8   16.74    3.69
   3   5   8   20.81    4.15
  -3   5  -8   22.09    1.06
  -4  -5  -8   36.89    5.47
   4  -5   8   36.58    1.56
   4  -5   8   36.99    4.51
  -4   5  -8   31.43    4.92
   4   5   8   36.12    5.27
   4   5   8   36.37    1.80
   5  -5   8   17.76    1.07
   5  -5   8   20.08    3.41
  -5  -5  -8    9.06    3.19
   5   5   8   17.56    1.19
   5   5   8   11.24    3.29
  -5   5  -8   23.86    5.69
   6  -5   8    3.30    0.51
   6  -5   8    2.64    1.89
  -6  -5  -8    3.08    2.21
   6   5   8    4.96    0.60
  -6   5  -8    0.23    1.85
   6   5   8    1.96    1.82
   7  -5   8   57.89    2.51
  -7  -5  -8   47.82    8.02
   7  -5   8   61.08    7.24
   7   5   8   57.88    2.81
   7   5   8   52.27    7.93
  -7   5  -8   47.63    7.38
   8  -5   8   22.04    5.16
   8  -5   8   25.51    1.42
  -8  -5  -8   14.56    4.88
   8   5   8   21.86    6.30
  -8   5  -8   18.87    5.59
   8   5   8   23.31    1.64
  -9  -5  -8    7.44    5.18
   9  -5   8   14.86    5.18
   9  -5   8   11.42    0.92
   9  -5   8   11.91    0.95
   9   5   8   10.91    1.27
   9   5   8   12.72    1.35
  -9   5  -8    5.44    4.44
  -9  -6   8   -0.52    2.55
   9  -6  -8    2.94    0.45
   9  -6  -8    3.07    2.81
  -9   6   8    3.15    1.94
   9   6  -8   -0.53    4.24
   9   6  -8    2.99    0.56
   9   6  -8    3.14    0.60
   8  -6  -8   81.75   12.78
  -8  -6   8   70.96    8.91
   8  -6  -8   77.38    2.95
   8   6  -8   81.89    3.36
   8   6  -8   75.94    3.30
  -8   6   8   70.95    9.48
   8   6  -8   66.17    9.96
   7  -6  -8   31.43    4.25
   7  -6  -8   27.10    1.31
  -7  -6   8   22.45    4.88
   7   6  -8   29.99    1.61
   7   6  -8   26.10    7.23
   7   6  -8   29.15    1.62
  -7   6   8   30.28    3.63
   6  -6  -8  101.68    7.58
   6  -6  -8  102.55    3.57
  -6  -6   8  100.08    9.63
  -6   6   8  100.00    6.29
   6   6  -8  102.36    4.00
   6   6  -8   90.06   10.01
   6   6  -8   96.87    4.68
   5  -6  -8   47.31    4.28
   5  -6  -8   49.99    1.90
  -5  -6   8   36.72    5.40
   5   6  -8   48.22    6.67
   5   6  -8   48.47    2.14
   5   6  -8   51.71    2.23
  -5   6   8   51.14    1.93
  -5   6   8   46.09    3.40
  -4  -6   8    3.50    1.72
   4  -6  -8    3.54    1.07
   4  -6  -8    2.76    0.28
   4   6  -8    1.72    1.63
  -4   6   8    2.64    0.29
   4   6  -8    2.45    0.43
  -4   6   8    3.21    0.25
   4   6  -8    2.60    0.41
   3  -6  -8   22.41    1.05
  -3  -6   8   24.48    3.78
   3   6  -8   24.14    1.24
  -3   6   8   24.08    1.05
   3   6  -8   23.37    1.15
   3   6  -8   23.63    3.82
   2  -6  -8  267.33    8.44
  -2  -6   8  228.72   13.26
   2   6  -8  242.06   14.01
   2   6  -8  255.20    8.43
   2   6  -8  268.57    8.60
  -2   6   8  264.51    8.33
  -1  -6   8    1.84    1.05
   1  -6  -8    1.19    0.73
   1  -6  -8    1.11    0.24
   1  -6  -8    1.56    0.55
  -1  -6   8    1.68    0.27
  -1   6   8    1.65    0.24
   1   6  -8    1.11    0.24
   1   6  -8    1.36    0.22
   1   6  -8    0.08    0.79
   0  -6   8  371.14   12.45
   0  -6  -8  421.43   17.06
   0  -6   8  390.39   12.48
   0   6  -8  406.99   19.04
   0   6   8  338.33   12.93
   0   6  -8  353.79   12.33
   0   6  -8  392.91   18.63
   0   6   8  420.75   15.88
   1  -6   8    1.24    0.22
   1  -6   8    1.30    0.20
  -1  -6  -8    1.26    1.22
  -1   6  -8    1.81    1.12
  -1   6  -8    1.42    0.24
   1   6   8    1.23    0.27
   1   6   8    0.90    0.76
  -1   6  -8    0.74    0.79
  -1   6  -8    0.82    0.24
   2  -6   8  302.06    9.20
  -2  -6  -8  267.77   14.97
   2  -6   8  308.85    9.36
  -2   6  -8  254.44   14.56
  -2   6  -8  293.39    9.43
  -2   6  -8  282.02   14.19
  -2   6  -8  275.22    9.34
   2   6   8  278.22   14.47
   3  -6   8   25.66    1.09
   3  -6   8   29.69    3.80
   3  -6   8   25.21    1.16
  -3  -6  -8   26.12    4.37
  -3   6  -8   24.87    1.20
   3   6   8   20.29    4.11
  -3   6  -8   22.17    3.65
   4  -6   8    2.04    1.40
   4  -6   8    1.98    0.29
  -4  -6  -8   -0.59    1.25
  -4   6  -8    1.54    0.27
   4   6   8    3.13    1.76
   4   6   8    1.09    0.28
  -4   6  -8    2.01    1.77
   5  -6   8   44.82    1.84
  -5  -6  -8   42.04    6.28
   5  -6   8   41.46    5.13
   5  -6   8   43.73    1.96
   5   6   8   39.40    6.07
   5   6   8   43.38    2.17
  -5   6  -8   42.24    6.05
  -6  -6  -8   86.87   10.04
   6  -6   8   74.44    7.85
   6  -6   8   97.09    3.61
   6   6   8  101.91   10.52
   6   6   8   96.76    3.97
  -6   6  -8   87.93   10.01
   7  -6   8   14.88    4.42
   7  -6   8   28.57    1.45
  -7  -6  -8   21.07    5.67
   7   6   8   28.47    1.75
  -7   6  -8   20.43    5.39
   7   6   8   24.19    5.75
   8  -6   8   73.24    2.90
  -8  -6  -8   69.96   10.29
   8  -6   8   49.70    7.71
  -8   6  -8   70.51   10.24
   8   6   8   68.28    3.34
   9  -6   8    3.44    0.56
   9  -6   8    4.59    0.66
  -9  -6  -8    8.81    4.91
  -9   6  -8    6.77    4.14
   9   6   8    3.60    0.68
   9   6   8    3.62    0.78
   9   6   8    5.31    4.24
  -8  -7   8    3.96    3.05
   8  -7  -8    2.81    0.39
   8  -7  -8    0.74    1.79
   8   7  -8    2.39    0.49
   8   7  -8    2.11    0.47
  -8   7   8    1.89    1.34
   8   7  -8   -2.96    2.70
   7  -7  -8   21.05    3.34
   7  -7  -8   22.73    1.10
  -7  -7   8   19.72    5.78
   7   7  -8   22.16    1.41
   7   7  -8   26.46    6.53
   7   7  -8   22.55    1.38
  -7   7   8   23.25    2.80
   6  -7  -8  193.69    6.55
   6  -7  -8  196.25    9.71
  -6  -7   8  178.92   13.82
   6   7  -8  196.36    7.04
  -6   7   8  210.99    9.06
   6   7  -8  187.43   15.34
   6   7  -8  200.24    6.97
   5  -7  -8   -0.07    0.48
   5  -7  -8    0.24    0.12
  -5   7   8    0.19    0.11
   5   7  -8    0.33    0.14
   5   7  -8    0.03    0.10
  -5   7   8    0.16    0.16
   4  -7  -8  421.50   13.44
  -4  -7   8  414.91   21.25
   4   7  -8  422.57   13.70
  -4   7   8  427.36   13.50
   4   7  -8  415.32   13.83
   4   7  -8  406.46   22.16
   3  -7  -8    0.33    0.12
  -3  -7   8   -0.61    0.94
   3   7  -8    0.57    1.36
  -3   7   8    0.31    0.10
   3   7  -8    0.26    0.15
   3   7  -8    0.19    0.10
  -2  -7   8  262.78   14.54
   2  -7  -8  282.85    8.92
  -2   7   8  284.06    8.79
   2   7  -8  279.10    9.10
   2   7  -8  260.59    8.93
   2   7  -8  245.37   14.73
  -1  -7   8  109.22    3.84
  -1  -7   8   98.13    7.77
   1   7  -8  109.11    3.78
   1   7  -8  113.33    3.96
   1   7  -8  100.98    8.11
  -1   7   8  112.37    3.77
   0  -7   8    0.27    0.10
   0  -7   8    0.50    0.17
   0  -7  -8    1.66    0.95
   0   7  -8    0.92    0.73
   0   7  -8    0.09    0.65
   0   7   8   -0.17    0.33
   0   7  -8    0.51    0.14
   0   7   8    0.13    0.08
  -1  -7  -8  109.34    7.61
   1  -7   8  119.70    3.84
   1  -7   8  116.48    3.98
  -1   7  -8  114.36    3.93
  -1   7  -8  108.23    3.98
  -1   7  -8  101.76    7.85
   1   7   8  106.58    7.05
   1   7   8  118.96    4.13
  -1   7  -8   99.27   10.92
   2  -7   8  288.87    8.86
  -2  -7  -8  256.02   14.67
   2  -7   8  274.13    9.01
  -2   7  -8  288.07    9.11
  -2   7  -8  259.12   14.67
  -2   7  -8  267.23   13.97
  -2   7  -8  269.67    9.06
   2   7   8  284.55   14.61
   3  -7   8    0.70    0.17
   3  -7   8    0.24    0.10
  -3  -7  -8    0.84    1.01
  -3   7  -8    0.47    0.16
  -3   7  -8    0.31    1.18
   3   7   8   -0.57    0.82
   3   7   8    0.42    0.19
  -3   7  -8    0.41    1.04
   4  -7   8  423.25   13.19
  -4  -7  -8  376.89   21.72
   4   7   8  418.79   21.96
  -4   7  -8  422.26   13.33
  -4   7  -8  399.27   21.73
   4   7   8  398.47   13.62
   5  -7   8   -0.58    0.90
   5  -7   8    0.05    0.12
  -5  -7  -8   -0.99    1.05
   5  -7   8    0.41    0.13
   5   7   8   -0.26    0.12
  -5   7  -8   -0.24    1.25
   5   7   8    1.96    1.61
   6  -7   8  196.58   13.02
  -6  -7  -8  171.51   14.95
   6  -7   8  196.47    6.53
   6   7   8  188.84    7.01
   6   7   8  187.22   14.87
  -6   7  -8  165.04   14.57
   7  -7   8   25.83    5.58
  -7  -7  -8   17.61    7.00
   7  -7   8   23.25    1.25
   7   7   8   23.81    1.61
  -7   7  -8   16.05    4.48
   8  -7   8    4.30    0.52
   8  -7   8    4.49    0.52
  -8  -7  -8    3.59    3.19
   8  -7   8    4.27    3.11
   8   7   8    3.04    4.08
   8   7   8    5.78    0.93
  -8   7  -8    4.07    2.75
   8  -8  -8   48.22    4.54
   8  -8  -8   53.44    2.09
  -8  -8   8   44.62    7.87
  -8   8   8   48.07    4.42
   8   8  -8   53.55    2.63
   8   8  -8   52.66    2.52
   8   8  -8   45.04    9.21
  -7  -8   8   17.67    5.00
   7  -8  -8   20.23    0.99
   7  -8  -8   17.15    2.23
   7   8  -8   21.05    5.80
   7   8  -8   18.20    1.27
   7   8  -8   19.37    1.27
  -7   8   8   19.67    2.23
  -6  -8   8   26.52    5.59
   6  -8  -8   30.93    1.32
   6   8  -8   29.46    1.61
   6   8  -8   26.58    6.64
   6   8  -8   32.65    1.74
   5  -8  -8    0.13    0.11
  -5  -8   8    0.35    1.40
  -5   8   8    0.21    0.13
   5   8  -8   -0.07    0.08
   5   8  -8    1.01    1.82
   5   8  -8    0.08    0.11
  -4  -8   8    0.54    1.20
   4  -8  -8    0.48    0.15
   4   8  -8    2.55    1.56
   4   8  -8    0.48    0.20
  -4   8   8    0.65    0.16
   4   8  -8    0.40    0.17
   3  -8  -8   24.22    1.11
  -3  -8   8   18.36    3.91
   3   8  -8   23.12    1.18
   3   8  -8   25.85    1.35
   3   8  -8   16.69    4.11
  -3   8   8   24.74    1.04
  -2  -8   8   68.17    6.66
  -2   8   8   74.28    2.55
   2   8  -8   72.28    2.86
   2   8  -8   69.72    2.67
   2   8  -8   70.16    7.20
  -1  -8   8    1.56    1.06
  -1  -8   8    0.59    0.16
   1   8  -8    0.49    0.98
  -1   8   8    0.73    0.15
   1   8  -8    0.83    0.18
   1   8  -8    0.56    0.17
   0  -8   8  276.97    8.52
   0  -8  -8  249.91   11.14
   0   8   8  256.16   10.74
   0   8  -8  265.16    8.50
   0   8  -8  240.21   13.81
   0   8  -8  238.48   13.57
   0   8  -8  263.57    8.68
   0   8   8  272.26    8.60
   1  -8   8   -0.01    0.10
  -1  -8  -8    0.20    0.81
   1  -8   8    0.27    0.10
  -1   8  -8    1.13    0.82
   1   8   8    0.29    0.16
  -1   8  -8    0.95    0.81
  -1   8  -8    0.04    0.08
  -1   8  -8    0.29    0.12
   1   8   8    1.41    0.99
   2  -8   8   82.27    2.91
   2  -8   8   80.27    2.74
  -2  -8  -8   77.06    7.01
   2   8   8   68.07    6.29
  -2   8  -8   78.74    7.20
   2   8   8   78.08    3.04
  -2   8  -8   75.24    6.46
  -2   8  -8   81.91    2.96
  -2   8  -8   78.00    2.97
   3  -8   8   17.67    0.75
  -3  -8  -8   12.64    3.42
   3  -8   8   17.31    0.86
  -3   8  -8   11.24    3.04
   3   8   8   17.19    1.07
  -3   8  -8   16.42    0.93
  -3   8  -8   10.30    2.55
   3   8   8   11.77    3.08
   4  -8   8    0.69    0.22
   4  -8   8    1.08    0.18
  -4  -8  -8    3.09    2.11
   4  -8   8    1.13    0.23
  -4   8  -8   -0.09    1.23
  -4   8  -8    0.82    0.22
   4   8   8    0.56    0.23
   4   8   8   -0.16    0.97
   5  -8   8    0.18    0.12
   5  -8   8    0.24    0.97
  -5  -8  -8   -0.38    1.57
   5  -8   8    0.08    0.15
   5   8   8   -0.99    1.17
   5   8   8    0.23    0.16
  -5   8  -8    1.21    1.68
   6  -8   8   29.35    1.30
   6  -8   8   28.55    1.37
   6  -8   8   29.00    4.71
   6  -8   8   31.24    1.42
  -6  -8  -8   25.72   10.07
   6   8   8   28.21    1.77
  -6   8  -8   24.70    5.94
   7  -8   8   14.59    0.88
   7  -8   8   14.09    4.20
  -7  -8  -8   10.13    4.59
  -7   8  -8   16.14    5.63
   7   8   8   16.23    1.31
   7   8   8   12.49    4.60
   8  -8   8   54.03    2.32
   8  -8   8   53.97    2.20
   8  -8   8   53.38    7.62
  -8   8  -8   54.29   10.66
   8   8   8   60.42    3.04
   8   8   8   52.60    2.92
  -8  -9   8   12.02    4.89
   8   9  -8   10.57    1.01
   8   9  -8   12.17    1.01
   8   9  -8   17.23    6.46
  -7  -9   8   10.25    3.92
   7   9  -8   20.73    1.31
   7   9  -8   14.49    5.58
   7   9  -8   19.66    1.34
  -6  -9   8   -0.29    1.50
   6  -9  -8    0.88    0.22
   6   9  -8    0.68    0.26
   6   9  -8    1.41    2.84
   6   9  -8    0.64    0.23
  -5  -9   8   47.19    6.65
   5  -9  -8   45.03    1.75
   5   9  -8   45.72    2.20
   5   9  -8   46.60    6.94
   5   9  -8   45.53    2.18
  -5   9   8   41.91    1.82
  -4  -9   8    2.06    1.65
   4   9  -8    2.44    1.85
  -3  -9   8    1.43    1.22
   3   9  -8    1.36    0.32
   3   9  -8    1.07    1.48
   3   9  -8    1.50    0.26
  -3   9   8    1.23    0.19
  -2  -9   8   -0.14    0.77
   2   9  -8    0.12    0.09
  -2   9   8   -0.08    0.06
   2   9  -8   -0.03    0.09
  -1  -9   8   50.03    5.59
   1   9  -8   51.58    2.20
  -1   9   8   54.45    1.97
   1   9  -8   54.65    6.10
   1   9  -8   48.25    1.98
   0  -9   8    0.00    0.10
   0  -9  -8   -0.11    0.56
   0   9   8   -0.36    0.49
   0   9  -8   -0.07    0.92
   0   9  -8   -0.08    0.06
   0   9  -8    0.54    1.19
   0   9   8    0.18    0.12
   0   9  -8    0.09    0.08
   1  -9   8   57.23    2.18
   1  -9   8   56.45    2.03
  -1  -9  -8   56.48    5.08
  -1   9  -8   51.51    5.62
   1   9   8   52.90    2.16
  -1   9  -8   54.74    2.23
  -1   9  -8   49.28    5.46
  -1   9  -8   52.99    2.09
   1   9   8   50.08    4.64
  -2  -9  -8    1.27    1.01
   2  -9   8    0.07    0.09
   2  -9   8    0.18    0.11
  -2   9  -8    0.27    0.12
  -2   9  -8    0.32    0.14
   2   9   8    0.60    0.19
  -2   9  -8   -0.35    0.67
  -2   9  -8    1.79    1.09
   3  -9   8    0.54    0.25
  -3  -9  -8   -0.17    1.32
   3  -9   8    0.41    0.12
  -3   9  -8    0.85    0.24
   3   9   8    1.04    0.28
  -3   9  -8    1.09    1.28
  -3   9  -8    0.38    0.96
   4  -9   8    0.76    0.14
  -4  -9  -8    1.56    1.78
   4  -9   8    0.90    0.21
  -4   9  -8    0.53    0.17
   4   9   8    0.20    0.18
  -4   9  -8    0.00    1.68
   5  -9   8   36.45    1.53
   5  -9   8   34.93    1.53
  -5  -9  -8   44.63    6.85
  -5   9  -8   27.21    6.01
  -5   9  -8   36.80    1.75
   5   9   8   33.90    5.95
   5   9   8   37.36    2.01
  -6  -9  -8   -0.95    2.25
   6  -9   8    1.20    1.59
  -6   9  -8   -0.56    2.36
   6   9   8   -0.56    2.21
   6   9   8    0.34    0.25
   7  -9   8   22.09    1.15
   7  -9   8   16.03    3.88
   7   9   8   21.40    1.57
  -7   9  -8   10.84    5.28
   8   9   8   13.09    1.24
   8   9   8   11.16    1.14
  -7 -10   8   19.14    5.36
   7  10  -8   22.95    1.42
   7  10  -8   17.40    6.07
  -6 -10   8   12.21    6.71
   6  10  -8    9.33    0.81
   6  10  -8   11.65    0.99
  -5 -10   8  147.08   12.82
   5  10  -8  138.35   16.06
   5  10  -8  179.54    6.12
   5  10  -8  181.88    6.35
  -4 -10   8    2.79    1.92
   4  10  -8    4.02    0.63
   4  10  -8    3.44    0.49
   4  10  -8    0.62    2.08
  -3 -10   8  273.45   16.75
   3  10  -8  283.84    9.60
   3  10  -8  260.21   17.29
   3  10  -8  291.77    9.35
  -2 -10   8   26.42    4.30
   2  10  -8   20.74    5.10
  -2  10   8   31.05    1.21
   2  10  -8   31.13    1.59
   2  10  -8   31.83    1.39
  -1 -10   8   24.56    4.00
   1  10  -8   21.96    4.72
   1  10  -8   24.34    1.32
   1  10  -8   23.08    1.19
  -1  10   8   26.72    1.10
   0 -10  -8   65.67    3.82
   0 -10   8   65.80    2.48
   0  10  -8   68.86    6.87
   0  10   8   67.85    3.81
   0  10  -8   58.77    6.13
   0  10  -8   62.69    2.64
   0  10   8   68.57    2.47
   0  10  -8   65.56    2.44
   0  10   8   65.56    2.49
  -1 -10  -8   21.16    2.85
   1 -10   8   22.13    0.97
   1 -10   8   19.75    1.03
  -1  10  -8   19.93    3.42
  -1  10  -8   20.39    1.00
  -1  10  -8   18.00    3.77
  -1  10  -8   20.04    1.12
   1  10   8   19.83    2.92
   1  10   8   21.27    1.10
  -2 -10  -8   29.49    4.31
   2 -10   8   35.16    1.33
  -2  10  -8   33.42    1.58
  -2  10  -8   35.08    4.73
  -2  10  -8   33.26    4.86
   2  10   8   34.57    1.66
   3 -10   8  301.86    9.65
  -3  10  -8  250.82   16.50
  -3  10  -8  301.94    9.92
   3  10   8  318.32   10.21
  -4 -10  -8    2.57    2.04
  -4  10  -8    3.70    0.43
   4  10   8    3.47    0.60
   4  10   8    4.54    2.46
  -4  10  -8    3.62    1.74
  -5 -10  -8  181.33   14.90
   5  10   8  163.76   13.88
  -5  10  -8  182.47    6.17
   5  10   8  175.36    6.53
  -5  10  -8  147.80   13.29
  -6  10  -8   10.58    4.29
   6  10   8    8.28    0.88
   7  10   8   30.83    1.95
   7  10   8   25.48    1.81
  -7  10  -8   18.90    6.43
  -6 -11   8    3.40    2.67
   6  11  -8    2.06    0.49
   6  11  -8    2.21    0.42
   6  11  -8   -1.55    3.66
  -5 -11   8    5.19    2.77
   5  11  -8    5.54    0.66
   5  11  -8    4.25    2.98
   5  11  -8    4.49    0.53
  -4 -11   8   11.08    3.78
   4  11  -8   15.30    4.72
   4  11  -8   13.30    1.03
   4  11  -8   13.79    0.91
  -3 -11   8   53.91    7.85
   3  11  -8   52.36    2.16
   3  11  -8   50.23    2.37
  -2 -11   8   65.95    7.11
   2  11  -8   60.72    2.37
   2  11  -8   57.99    2.60
  -1  11   8  312.14    9.83
   1  11  -8  302.92   10.28
   1  11  -8  298.99    9.97
   0 -11   8    0.05    0.23
   0 -11   8    0.40    0.21
   0 -11  -8    0.63    0.45
   0  11   8    0.62    0.15
   0  11   8    0.18    0.14
   0  11   8    0.49    0.49
   0  11  -8    0.12    0.13
   0  11  -8    0.55    0.14
  -1 -11  -8  327.31   15.21
   1 -11   8  331.04   10.57
   1 -11   8  347.53   10.87
  -1  11  -8  325.92   10.89
   1  11   8  333.08   15.69
  -1  11  -8  292.43   17.14
  -1  11  -8  326.07   10.63
   1  11   8  323.63   10.83
   2 -11   8   46.35    1.84
  -2 -11  -8   50.68    5.58
  -2  11  -8   44.73    5.58
  -2  11  -8   51.98    6.02
   2  11   8   43.06    5.08
   2  11   8   49.58    2.18
  -2  11  -8   48.43    2.10
  -3 -11  -8   57.36    6.58
  -3  11  -8   52.68    6.72
  -3  11  -8   55.83    6.10
   3  11   8   50.51    2.41
  -3  11  -8   54.70    2.30
   4  11   8   16.97    1.21
  -4  11  -8   16.78    1.04
  -4  11  -8   14.90    4.87
   5  11   8    3.79    0.71
  -5  11  -8    5.58    3.02
  -5  11  -8    5.56    0.60
  -6  11  -8    3.20    3.13
   6  11   8    5.17    0.85
   6  11   8    4.93    0.81
   6  12  -8   33.37    1.78
   6  12  -8   31.86    1.92
   5  12  -8    3.80    0.62
   5  12  -8    3.18    0.50
  -4 -12   8   11.14    5.42
   4  12  -8    5.47    5.28
   4  12  -8   11.72    0.97
  -3 -12   8    8.30    3.02
   3  12  -8   10.10    3.68
   3  12  -8    6.64    0.58
   3  12  -8    8.20    0.77
  -2 -12   8    5.64    2.31
   2  12  -8    7.79    0.70
   2  12  -8    7.52    0.57
   2  12  -8    5.62    2.29
   1  12  -8    2.97    0.33
   1  12  -8    4.15    2.36
   0 -12   8   18.61    1.00
   0  12  -8   16.83    0.88
   0  12  -8   17.75    1.12
   0  12  -8   11.82    3.19
   0  12   8   18.46    0.92
   0  12  -8   15.26    3.73
   0  12   8   19.26    0.99
   1 -12   8    2.56    0.34
  -1 -12  -8    0.69    1.11
   1  12   8    2.59    0.49
  -1  12  -8    1.66    0.32
  -1  12  -8    0.95    1.41
  -1  12  -8    0.87    1.24
   1  12   8    2.11    1.17
  -2 -12  -8    8.67    3.28
  -2  12  -8    9.20    3.68
   2  12   8    8.87    0.75
  -2  12  -8   12.21    3.33
   2  12   8    7.26    2.87
  -2  12  -8    7.75    0.68
  -3  12  -8   10.56    3.59
   3  12   8    9.15    0.83
  -3  12  -8    9.41    0.73
  -4  12  -8    7.09    3.45
   4  12   8    5.68    0.98
  -4  12  -8    7.04    0.75
  -5  12  -8    3.09    0.49
   5  12   8    2.70    0.58
   5  12   8    3.61    0.67
  -5  12  -8   -0.29    2.54
   6  12   8   26.57    1.82
   6  12   8   29.78    1.87
  -6  12  -8   20.03    6.33
   5  13  -8    0.35    0.25
   5  13  -8    0.59    0.23
   4  13  -8   47.41    2.36
   4  13  -8   44.17    2.04
   3  13  -8   22.37    1.17
   3  13  -8   19.19    1.32
   2  13  -8   56.64    2.51
   2  13  -8   49.48    2.11
   1  13  -8   48.09    5.97
   1  13  -8   51.07    2.32
   1  13  -8   48.81    1.98
   0  13  -8    0.17    0.15
   0  13  -8   -0.80    1.52
   0  13   8    0.19    0.17
  -1  13  -8   57.63    2.52
   1  13   8   58.64    2.46
  -1  13  -8   54.50    6.76
  -2  13  -8   40.12    6.19
   2  13   8   53.29    2.38
  -2  13  -8   53.23    2.35
  -3  13  -8   25.64    1.40
   3  13   8   25.18    1.54
   3  13   8   26.99    1.55
  -3  13  -8   20.00    4.82
  -4  13  -8   48.17    2.21
  -4  13  -8   45.28    7.09
   4  13   8   48.30    2.45
   4  13   8   49.56    2.44
   5  13   8    0.34    0.28
  -5  13  -8    0.48    0.30
  -5  13  -8    1.22    3.16
   5  13   8    0.77    0.34
   3  14  -8   28.09    1.38
   3  14  -8   25.85    1.61
   2  14  -8  103.26    4.14
   2  14  -8  101.68    3.72
   1  14  -8    7.67    2.81
   1  14  -8   11.19    0.90
   1  14  -8   10.50    0.66
   0  14  -8  100.04    9.33
   0  14   8  119.88    4.30
   0  14  -8  116.93    4.44
  -1  14  -8    8.88    0.74
  -1  14  -8    9.39    3.16
   1  14   8    8.28    0.66
   1  14   8    8.59    0.70
   2  14   8  111.72    4.21
  -2  14  -8  111.62    4.23
  -2  14  -8  101.41    9.68
   2  14   8  108.98    4.31
  -3  14  -8   24.78    1.42
   3  14   8   26.55    1.53
  -3  14  -8   27.12    5.84
   3  14   8   24.89    1.57
   1  15  -8    5.94    0.65
   0  15  -8   -0.08    0.17
   1  15   8    8.19    0.71
  -1  15  -8    8.09    0.76
   9   0  -9    1.91    0.31
   9   0  -9    0.12    2.79
  -9   0   9    1.33    2.31
   9   0  -9    2.65    0.46
  -8   0   9    0.78    1.56
   8   0  -9   -3.92    1.83
   7   0  -9    5.48    0.53
  -7   0   9    2.89    1.67
   7   0  -9    5.63    0.46
   7   0  -9    4.11    2.56
  -6   0   9   -0.09    0.75
   6   0  -9    0.03    0.07
   6   0  -9    0.88    1.19
   6   0  -9    0.16    0.11
  -5   0   9    4.63    1.82
   5   0  -9    5.79    0.49
   5   0  -9    6.03    0.44
   4   0  -9    0.07    0.10
  -4   0   9    0.28    0.56
   4   0  -9   -0.01    0.05
  -3   0   9   18.04    2.79
   3   0  -9   14.00    0.76
   3   0  -9   13.66    0.68
  -3   0   9   14.48    0.79
  -2   0   9   -0.21    0.29
  -2   0   9    0.16    0.07
  -2   0   9    0.10    0.06
   2   0  -9    0.07    0.05
   2   0  -9    0.14    0.63
   2   0  -9    0.13    0.06
   1   0  -9   28.50    3.42
  -1   0   9   25.26    1.09
   1   0  -9   30.65    3.37
   1   0  -9   24.79    1.13
   1   0  -9   25.83    1.05
   0   0  -9    0.00    0.39
   0   0  -9   -0.39    0.34
   0   0  -9    0.14    0.07
   0   0  -9    0.06    0.06
   0   0   9    0.11    0.07
   0   0   9    0.17    0.08
  -1   0  -9   19.10    1.04
   1   0   9   20.43    3.11
   1   0   9   20.89    0.93
  -1   0  -9   20.02    3.11
   1   0   9   19.07    0.97
   2   0   9   -0.95    0.44
   2   0   9   -0.01    0.04
   2   0   9    0.01    0.09
  -2   0  -9   -0.27    0.70
   3   0   9   58.13    6.19
  -3   0  -9   67.61    7.38
   4   0   9   -0.47    0.76
  -4   0  -9   -0.75    0.93
  -5   0  -9   25.46    5.56
   5   0   9   24.17    4.26
   5   0   9   27.05    1.52
   6   0   9    0.01    0.12
  -6   0  -9   -0.75    1.47
   6   0   9   -0.08    1.21
   7   0   9    0.50    0.27
   7   0   9    0.91    1.85
  -7   0  -9   -1.58    1.85
   8   0   9    0.05    0.18
  -8   0  -9   -1.05    2.83
   8   0   9   -0.87    2.27
   9   0   9   30.84    1.92
   9   0   9   19.29    6.25
  -9   0  -9   28.86    8.16
   9  -1  -9   13.59    0.98
   9  -1  -9   21.56    6.53
  -9  -1   9    9.85    3.66
   9  -1  -9   14.16    0.81
   9   1  -9   14.06    1.03
   9   1  -9   10.44    4.67
  -9   1   9    9.91    3.54
   9   1  -9   15.58    1.23
  -8  -1   9   19.99    4.95
   8  -1  -9   18.31    1.12
   8  -1  -9   17.73    0.92
   8  -1  -9   16.30    4.66
   8   1  -9   19.03    1.18
   8   1  -9   16.16    5.29
  -8   1   9   21.19    4.84
   8   1  -9   18.09    1.05
   7  -1  -9   -1.79    1.55
   7  -1  -9    0.51    0.15
  -7  -1   9   -1.91    0.97
   7  -1  -9    0.65    0.22
   7   1  -9    0.53    1.54
   7   1  -9    0.55    0.19
  -7   1   9    0.78    1.10
   7   1  -9    0.73    0.20
   6  -1  -9    1.85    1.65
   6  -1  -9    5.84    0.42
  -6  -1   9    6.03    2.17
   6  -1  -9    6.45    0.54
   6   1  -9    2.79    2.12
   6   1  -9    6.88    0.58
  -6   1   9    6.72    2.21
   6   1  -9    6.25    0.50
   5  -1  -9   17.51    0.92
   5  -1  -9   15.77    0.76
   5  -1  -9   12.35    3.23
  -5  -1   9   17.87    3.11
   5   1  -9   18.77    4.43
   5   1  -9   16.02    0.93
   5   1  -9   15.67    0.86
  -5   1   9   17.37    2.88
   4  -1  -9    0.47    0.14
   4  -1  -9    1.02    0.89
   4  -1  -9    0.56    0.12
  -4  -1   9   -0.01    0.67
  -4   1   9    0.08    0.47
  -4   1   9    0.20    0.13
   4   1  -9    0.67    0.70
   4   1  -9    0.42    0.13
   4   1  -9    0.37    0.12
   3  -1  -9   32.63    1.25
   3  -1  -9   33.11    1.40
   3  -1  -9   34.44    4.27
  -3  -1   9   39.82    4.43
  -3  -1   9   33.14    1.48
   3   1  -9   35.93    4.56
  -3   1   9   32.32    1.38
  -3   1   9   32.51    1.43
  -3   1   9   35.32    3.82
   3   1  -9   32.66    1.36
   3   1  -9   32.40    1.41
   2  -1  -9   25.18    3.22
   2  -1  -9   20.91    0.98
  -2  -1   9   20.85    1.00
  -2  -1   9   19.79    0.98
  -2  -1   9   19.53    2.88
   2  -1  -9   19.78    0.84
   2   1  -9   21.43    0.94
  -2   1   9   22.06    0.95
  -2   1   9   21.09    0.99
  -2   1   9   25.68    2.98
   2   1  -9   20.86    0.98
   2   1  -9   22.36    3.29
   1  -1  -9   16.44    0.73
  -1  -1   9   16.95    0.84
   1  -1  -9   19.02    2.57
   1  -1  -9   16.27    2.67
   1  -1  -9   16.60    0.85
  -1  -1   9   17.47    0.85
  -1   1   9   18.35    0.81
   1   1  -9   18.23    0.81
   1   1  -9   21.31    3.06
  -1   1   9   18.40    0.86
   0  -1   9    7.14    0.54
   0  -1  -9    6.04    0.48
   0  -1  -9   10.20    2.33
   0  -1   9    7.24    0.52
   0   1   9    7.33    0.52
   0   1  -9    6.46    1.79
   0   1  -9    7.53    0.51
   0   1   9    8.05    0.45
   0   1  -9    7.42    0.45
   0   1  -9    5.75    1.68
   1  -1   9   22.96    1.01
   1  -1   9   28.60    3.56
  -1  -1  -9   21.98    1.15
   1  -1   9   23.82    1.06
  -1  -1  -9   27.75    3.75
  -1   1  -9   20.96    0.97
   1   1   9   19.96    1.04
  -1   1  -9   21.62    1.11
  -1   1  -9   25.65    3.55
   1   1   9   21.48    1.08
   1   1   9   28.41    3.51
   2  -1   9    2.93    1.43
  -2  -1  -9    0.91    0.98
   2  -1   9    1.34    0.21
  -2   1  -9    2.66    1.52
   2   1   9    1.27    1.07
  -2   1  -9    1.03    0.26
   2   1   9    1.05    0.24
   2   1   9    1.52    0.19
   3  -1   9    1.90    1.06
  -3  -1  -9    2.74    1.97
   3  -1   9    1.52    0.28
   3   1   9    1.89    1.31
  -3   1  -9    2.10    1.29
  -4  -1  -9    6.27    2.42
   4   1   9    4.93    2.03
   5  -1   9    4.47    0.53
  -5  -1  -9    0.91    1.39
   5  -1   9    3.95    2.04
  -5   1  -9    6.06    2.81
   5   1   9    6.78    2.58
   5   1   9    4.43    0.54
   6  -1   9    0.49    0.24
   6  -1   9   -0.84    1.00
  -6  -1  -9    1.01    1.82
  -6   1  -9    4.21    2.48
   6   1   9    0.99    0.34
   6   1   9    1.01    1.56
   7  -1   9   10.08    0.92
   7  -1   9   10.41    3.91
  -7  -1  -9    5.95    3.08
  -7   1  -9    9.24    3.87
   7   1   9   11.77    3.83
   8  -1   9    1.23    0.38
   8  -1   9    1.37    2.41
  -8  -1  -9    9.06    5.04
   8   1   9   -2.05    2.17
  -8   1  -9   -0.68    2.80
   8   1   9    1.76    0.46
  -9  -1  -9   -3.10    3.62
   9  -1   9    7.00    0.80
   9  -1   9    4.63    3.54
   9   1   9    5.05    3.97
  -9   1  -9    8.93    4.54
   9   1   9    5.09    0.82
   9  -2  -9    3.70    3.29
   9  -2  -9    6.31    0.60
  -9  -2   9    8.22    4.00
  -9   2   9    6.39    2.70
   9   2  -9    0.53    3.41
   9   2  -9    7.13    0.71
   9   2  -9    6.52    0.64
  -8  -2   9   -2.32    1.41
   8  -2  -9    1.94    2.61
   8   2  -9    0.49    2.37
   8   2  -9    1.53    0.31
   8   2  -9    1.31    0.32
  -8   2   9    0.26    1.48
   7  -2  -9   12.48    4.06
   7  -2  -9    6.83    0.43
   7  -2  -9    6.30    0.55
  -7  -2   9    8.83    4.03
  -7   2   9    5.13    1.93
   7   2  -9    7.49    0.62
   7   2  -9    7.76    5.34
   7   2  -9    6.49    1.02
   6  -2  -9    7.59    0.44
  -6  -2   9    8.24    2.65
   6  -2  -9    8.35    2.82
   6  -2  -9    8.69    0.62
   6   2  -9    8.59    3.16
  -6   2   9   11.55    2.89
   6   2  -9    7.70    0.64
   6   2  -9    8.17    0.62
   5  -2  -9   11.39    0.54
   5  -2  -9   11.74    0.71
   5  -2  -9   14.16    3.35
  -5  -2   9   13.92    3.51
   5   2  -9   11.52    3.21
   5   2  -9   11.72    0.77
  -5   2   9    8.50    2.30
   5   2  -9   11.69    0.74
   4  -2  -9   21.83    3.31
   4  -2  -9   21.93    1.07
   4  -2  -9   21.16    0.83
  -4  -2   9   20.65    3.27
  -4   2   9   19.98    2.73
   4   2  -9   20.41    4.30
   4   2  -9   21.16    1.09
   4   2  -9   20.95    1.05
  -4   2   9   22.48    1.06
   3  -2  -9    1.41    0.23
  -3  -2   9    2.81    1.50
   3  -2  -9    3.31    1.45
  -3   2   9    1.39    0.22
   3   2  -9   -0.14    0.63
  -3   2   9    1.53    0.24
  -3   2   9    1.07    0.70
   3   2  -9    1.02    0.23
   3   2  -9    1.78    0.28
   2  -2  -9   16.84    0.85
  -2  -2   9   16.45    2.84
  -2  -2   9   16.50    0.88
  -2  -2   9   16.82    0.87
   2  -2  -9   20.06    2.75
   2   2  -9   11.84    2.92
  -2   2   9   17.30    0.85
  -2   2   9   17.58    0.78
   2   2  -9   16.62    0.83
   2   2  -9   16.69    0.85
   1  -2  -9   15.30    2.28
   1  -2  -9   11.26    0.66
  -1  -2   9   10.78    0.65
   1  -2  -9   11.28    1.84
  -1  -2   9   12.62    0.67
  -1   2   9   10.99    0.56
   1   2  -9   12.24    0.64
   1   2  -9   11.88    0.66
   1   2  -9    9.76    2.36
  -1   2   9   11.21    0.64
   0  -2   9    2.91    0.28
   0  -2  -9    2.75    1.18
   0  -2   9    2.78    0.28
   0  -2  -9    2.87    0.32
   0   2   9    3.05    0.30
   0   2  -9    4.68    1.69
   0   2  -9    1.39    0.98
   0   2  -9    2.71    0.28
   0   2   9    3.15    1.31
   0   2  -9    3.44    0.29
   0   2   9    2.90    0.25
   1  -2   9   20.84    3.11
   1  -2   9   15.37    0.81
   1  -2   9   16.02    0.79
  -1  -2  -9   14.08    0.89
  -1  -2  -9   10.68    2.56
  -1   2  -9   14.68    0.75
  -1   2  -9   14.94    3.27
   1   2   9   15.50    0.85
  -1   2  -9   13.71    0.82
   1   2   9   15.04    0.73
   1   2   9   15.35    2.61
   2  -2   9   41.31    1.66
   2  -2   9   47.21    5.04
   2  -2   9   38.68    1.68
  -2  -2  -9   38.82    5.10
  -2   2  -9   49.80    5.53
  -2   2  -9   41.31    1.85
  -2   2  -9   39.86    1.65
   2   2   9   44.38    4.97
   2   2   9   41.72    1.84
   3  -2   9    7.14    2.44
   3  -2   9    9.44    0.66
  -3  -2  -9    9.13    3.20
   3   2   9   11.37    3.31
  -3   2  -9   10.71    3.20
   4  -2   9   -0.15    0.90
  -4  -2  -9    0.74    1.12
   4   2   9   -0.54    0.95
  -4   2  -9   -0.40    0.82
   5  -2   9    3.61    2.13
  -5  -2  -9    6.77    2.71
   5  -2   9    7.93    0.72
   5   2   9    7.14    2.93
   5   2   9    8.37    0.76
  -5   2  -9   11.54    3.78
   6  -2   9   17.44    1.18
  -6  -2  -9   14.78    4.47
   6  -2   9   12.37    3.78
  -6   2  -9   20.10    5.48
   6   2   9   16.00    1.18
  -7  -2  -9    3.71    4.25
   7  -2   9    1.84    1.66
   7   2   9    1.12    2.33
  -7   2  -9    1.54    2.54
   8  -2   9   12.69    1.05
  -8  -2  -9    3.59    3.87
   8  -2   9   10.98    3.81
  -8   2  -9   13.65    4.30
   8   2   9   11.87    4.70
   8   2   9   13.47    1.15
   9  -2   9    5.48    3.60
   9  -2   9    5.11    0.78
  -9  -2  -9   -1.33    3.25
  -9   2  -9    2.45    3.89
   9   2   9    4.11    3.84
   9   2   9    6.78    0.83
   9  -3  -9   -2.72    2.92
  -9  -3   9    0.43    2.29
   9   3  -9    0.97    0.29
  -9   3   9    0.07    1.63
   9   3  -9    1.62    0.37
   9   3  -9   -2.06    3.79
  -8  -3   9   12.01    4.04
   8  -3  -9    8.49    1.22
   8  -3  -9    6.68    3.62
   8   3  -9    9.05    0.80
   8   3  -9    9.29    0.75
   8   3  -9    3.26    3.61
  -8   3   9    5.07    2.08
   7  -3  -9    6.59    2.57
  -7  -3   9    2.85    1.86
   7  -3  -9    1.91    0.34
  -7   3   9    1.62    1.18
   7   3  -9    3.13    2.73
   7   3  -9    2.51    0.45
   7   3  -9    2.38    0.43
  -6  -3   9   15.91    3.79
   6  -3  -9   17.80    0.99
   6  -3  -9   21.54    4.53
   6   3  -9   20.13    1.14
  -6   3   9   16.94    2.87
   6   3  -9   15.79    4.67
   6   3  -9   19.71    1.10
   5  -3  -9    0.36    0.12
   5  -3  -9   -0.39    0.88
  -5  -3   9    2.37    1.28
  -5   3   9    0.69    0.66
   5   3  -9    0.62    0.20
   5   3  -9    0.94    0.25
   5   3  -9   -0.66    0.72
   4  -3  -9    2.14    1.11
   4  -3  -9    2.37    0.34
  -4  -3   9    2.56    1.51
  -4   3   9    1.42    0.88
  -4   3   9    3.34    0.31
   4   3  -9    3.19    0.35
   4   3  -9    3.09    1.56
   4   3  -9    2.85    0.32
   3  -3  -9    8.71    0.56
  -3  -3   9   13.44    3.25
   3  -3  -9    9.66    2.21
   3   3  -9    8.83    0.61
   3   3  -9    9.56    0.62
  -3   3   9    9.65    0.53
   3   3  -9   13.84    3.68
  -3   3   9    9.41    0.59
  -3   3   9   11.82    1.88
   2  -3  -9   33.20    3.03
   2  -3  -9   27.34    1.22
  -2  -3   9   35.23    4.16
   2   3  -9   26.25    1.24
   2   3  -9   27.65    1.24
  -2   3   9   27.95    1.12
  -2   3   9   28.92    1.23
   2   3  -9   31.88    4.28
  -1  -3   9    1.58    0.25
   1  -3  -9    1.08    0.21
   1  -3  -9    0.62    0.51
  -1  -3   9   -0.02    0.79
   1  -3  -9    1.69    0.83
  -1  -3   9    1.19    0.24
   1   3  -9    1.52    1.06
  -1   3   9    1.29    0.15
   1   3  -9    1.06    0.20
   1   3  -9    1.34    0.23
  -1   3   9    1.17    0.22
   0  -3  -9    4.60    1.58
   0  -3   9    4.92    0.40
   0  -3  -9    4.49    0.42
   0  -3   9    4.58    0.36
   0   3   9    5.52    1.66
   0   3  -9    3.36    1.35
   0   3   9    4.73    0.39
   0   3  -9    4.87    0.38
   0   3  -9    4.23    0.37
   0   3  -9    9.18    2.49
   0   3   9    4.82    0.32
  -1  -3  -9    0.31    0.16
   1  -3   9    0.33    0.11
  -1  -3  -9    0.79    0.74
   1  -3   9    0.36    0.11
  -1   3  -9    0.61    0.15
  -1   3  -9    0.31    0.12
   1   3   9    0.35    0.14
  -1   3  -9    1.30    0.99
   1   3   9    0.41    0.60
   2  -3   9   13.19    0.72
   2  -3   9   11.74    0.69
   2  -3   9   14.92    3.30
  -2  -3  -9   14.31    3.60
  -2   3  -9   12.49    0.82
   2   3   9   10.82    2.75
  -2   3  -9   15.15    3.68
   2   3   9   12.97    0.88
  -2   3  -9   13.34    0.73
   3  -3   9    0.48    0.14
   3  -3   9    0.18    0.91
  -3  -3  -9    0.21    0.65
  -3   3  -9   -1.24    0.74
   3   3   9   -1.02    0.60
  -4  -3  -9   15.28    3.78
   4  -3   9   20.01    4.17
   4   3   9   18.32    3.96
  -4   3  -9   22.36    4.86
   5  -3   9    1.43    1.19
   5  -3   9    0.10    0.12
  -5  -3  -9    1.81    1.92
   5   3   9    1.19    1.28
  -5   3  -9   -0.90    0.96
   5   3   9    0.45    0.19
  -6  -3  -9    7.99    3.23
   6  -3   9    7.59    0.73
   6  -3   9    5.09    2.51
   6   3   9    6.50    2.31
  -6   3  -9    3.51    2.63
   6   3   9    7.87    0.79
  -7  -3  -9   -0.82    2.47
   7  -3   9    2.22    2.49
   7  -3   9    0.59    0.25
   7   3   9   -0.69    2.41
   7   3   9    1.41    0.44
  -8  -3  -9    1.05    2.91
   8  -3   9    0.21    0.19
   8  -3   9    6.65    3.54
  -8   3  -9   -2.43    2.43
   8   3   9    0.04    2.43
   8   3   9    0.72    0.31
   9  -3   9    0.88    3.24
  -9  -3  -9   -4.01    3.46
   9  -3   9    0.22    0.24
  -9   3  -9   -0.62    3.40
   9   3   9    5.05    3.53
   9   3   9    0.04    0.23
   9  -4  -9   -4.20    2.51
   9  -4  -9    1.71    0.32
  -9  -4   9    4.12    2.44
   9   4  -9    1.22    0.35
  -9   4   9    1.64    1.89
   9   4  -9    1.63    3.72
   9   4  -9    0.79    0.30
  -8  -4   9    4.12    2.77
   8  -4  -9    3.52    0.41
   8  -4  -9    1.08    3.01
   8   4  -9   14.88    4.83
   8   4  -9    2.81    0.50
  -8   4   9    0.46    1.19
   8   4  -9    3.47    0.52
   7  -4  -9    7.06    0.57
  -7  -4   9    4.88    2.82
   7  -4  -9    5.44    2.96
   7   4  -9    5.56    2.75
   7   4  -9    8.00    0.72
  -7   4   9   10.08    2.70
  -6  -4   9    1.90    1.49
   6  -4  -9    1.13    1.57
   6  -4  -9    1.58    0.29
   6   4  -9    1.69    0.32
   6   4  -9   -1.17    1.58
  -6   4   9    0.63    0.83
   6   4  -9    1.28    0.28
  -5  -4   9    4.83    2.04
   5  -4  -9    5.85    0.45
   5  -4  -9    3.76    1.74
   5   4  -9    4.42    0.47
   5   4  -9    6.74    2.26
  -5   4   9    4.83    0.54
   5   4  -9    4.69    0.48
  -5   4   9    5.85    1.61
  -4  -4   9    5.22    1.99
   4  -4  -9    8.31    0.54
   4  -4  -9    7.96    2.05
  -4   4   9    7.53    1.61
   4   4  -9    8.38    0.63
   4   4  -9    8.69    0.63
   4   4  -9    7.76    2.41
  -4   4   9    7.62    0.61
  -3  -4   9   -0.41    0.55
   3  -4  -9    1.07    0.65
   3  -4  -9    0.15    0.09
   3   4  -9    1.10    1.10
  -3   4   9    0.38    0.12
   3   4  -9    0.32    0.13
   3   4  -9    0.28    0.12
  -3   4   9    0.21    0.08
  -2  -4   9    4.02    1.70
   2  -4  -9    3.08    0.30
   2  -4  -9    3.28    1.14
   2  -4  -9    2.78    0.98
  -2   4   9    3.32    0.31
   2   4  -9    4.26    0.38
   2   4  -9    2.55    0.29
  -2   4   9    2.92    0.22
   2   4  -9    3.48    1.95
  -1  -4   9    5.30    0.40
  -1  -4   9    5.03    1.84
  -1  -4   9    5.18    0.60
   1  -4  -9    5.29    1.33
   1  -4  -9    6.19    1.56
   1  -4  -9    4.77    0.43
   1   4  -9    5.67    0.44
   1   4  -9    8.13    2.48
  -1   4   9    4.87    0.39
   1   4  -9    5.17    0.40
  -1   4   9    4.78    0.30
   0  -4  -9    1.91    0.33
   0  -4   9    2.26    0.33
   0  -4   9    2.78    0.26
   0  -4  -9    3.49    1.40
   0   4  -9    3.86    1.52
   0   4   9    3.53    1.16
   0   4   9    2.45    0.28
   0   4  -9    1.79    0.28
   0   4  -9    2.87    1.20
   0   4  -9    1.98    0.30
  -1  -4  -9    3.83    1.57
   1  -4   9    4.05    0.36
   1  -4   9    4.21    0.35
  -1   4  -9    4.25    0.40
  -1   4  -9    2.67    1.92
  -1   4  -9    4.26    0.37
   1   4   9    4.78    1.63
   1   4   9    4.37    0.42
  -1   4  -9    4.35    1.66
  -2  -4  -9   34.76    4.90
   2  -4   9   36.89    1.59
   2  -4   9   50.24    5.32
   2  -4   9   38.87    1.57
  -2   4  -9   38.03    1.73
  -2   4  -9   40.85    5.14
   2   4   9   42.89    5.03
  -3  -4  -9    0.21    0.82
   3  -4   9   -0.82    0.62
   3  -4   9    0.18    0.09
   3   4   9    0.19    0.91
  -3   4  -9    0.12    0.09
  -3   4  -9    0.84    0.95
   4  -4   9    1.16    0.99
  -4  -4  -9    1.00    1.29
   4   4   9    0.50    0.19
   4   4   9    0.22    0.89
  -4   4  -9    0.19    1.12
   5  -4   9    6.99    0.67
  -5  -4  -9    4.61    2.54
   5  -4   9    7.35    2.55
   5   4   9    5.52    0.64
   5   4   9    8.04    3.26
  -5   4  -9    5.74    2.64
   6  -4   9   14.81    3.93
   6  -4   9   19.62    1.25
  -6  -4  -9   12.79    4.56
  -6   4  -9   20.18    5.36
   6   4   9   21.07    1.39
   6   4   9   20.83    4.85
  -7  -4  -9   -1.32    2.81
   7  -4   9   -0.71    2.64
   7  -4   9    0.49    0.24
   7   4   9   -0.84    1.76
  -7   4  -9    3.23    3.05
   7   4   9    0.09    0.15
  -8  -4  -9   20.86    6.73
   8  -4   9   13.22    4.31
   8  -4   9   20.70    1.34
   8   4   9   18.93    1.43
   8   4   9   19.45    5.80
  -8   4  -9   11.35    5.05
   9  -4   9    0.89    0.31
  -9  -4  -9    0.60    3.64
   9  -4   9    4.01    3.61
   9   4   9    2.34    3.44
   9   4   9    0.88    0.35
  -9  -5   9    0.75    2.80
   9  -5  -9    6.23    3.37
   9  -5  -9    5.91    0.56
   9   5  -9    0.80    4.12
   9   5  -9    5.46    0.85
   9   5  -9    5.73    0.66
  -9   5   9    6.06    2.57
   8  -5  -9   11.16    0.76
  -8  -5   9    9.92    4.26
   8  -5  -9   10.72    3.85
  -8   5   9    9.60    2.65
   8   5  -9   12.10    0.95
   8   5  -9   10.59    0.91
   8   5  -9    9.07    4.42
  -7  -5   9    3.31    2.30
   7  -5  -9    0.85    2.01
   7  -5  -9    2.89    0.35
   7   5  -9    3.19    0.54
   7   5  -9    1.35    2.04
   7   5  -9    2.42    0.44
  -7   5   9    2.09    1.22
   6  -5  -9    7.54    0.56
   6  -5  -9   11.10    3.01
  -6  -5   9    8.80    3.21
  -6   5   9    8.50    2.02
   6   5  -9    7.82    3.09
   6   5  -9    9.93    0.77
   6   5  -9    8.33    0.73
   5  -5  -9   19.87    0.97
  -5  -5   9   11.91    3.37
   5  -5  -9   17.98    3.01
   5   5  -9   11.87    3.60
  -5   5   9   21.03    1.00
   5   5  -9   19.77    1.15
  -5   5   9   18.52    2.30
   5   5  -9   20.14    1.13
   4  -5  -9    0.36    0.13
  -4  -5   9   -0.78    0.67
   4  -5  -9   -0.39    0.69
   4   5  -9    0.20    0.12
  -4   5   9    0.74    0.43
   4   5  -9    0.40    0.18
   4   5  -9    0.62    1.30
  -4   5   9    0.56    0.12
  -4   5   9    0.30    0.13
  -3  -5   9   14.34    3.28
   3  -5  -9   19.41    0.92
   3  -5  -9   18.27    2.17
   3  -5  -9   16.01    1.66
  -3   5   9   19.34    0.79
   3   5  -9   18.40    1.03
   3   5  -9   20.93    4.28
  -3   5   9   19.50    0.93
   3   5  -9   18.06    0.97
   2  -5  -9   22.82    2.22
   2  -5  -9   24.26    2.16
  -2  -5   9   24.59    3.46
   2  -5  -9   25.70    1.16
  -2   5   9   25.92    0.96
  -2   5   9   26.17    1.12
   2   5  -9   24.25    1.21
   2   5  -9   25.01    3.74
   1  -5  -9    1.16    0.70
   1  -5  -9    1.19    0.24
  -1  -5   9    0.06    0.67
   1  -5  -9    2.06    0.76
  -1  -5   9    0.94    0.20
   1   5  -9    1.16    1.12
   1   5  -9    1.46    0.27
   1   5  -9    0.79    0.18
  -1   5   9    0.73    0.18
   0  -5  -9    0.08    0.11
   0  -5   9    0.10    0.08
   0  -5  -9   -0.07    0.59
   0   5  -9   -0.14    0.72
   0   5   9   -0.22    0.28
   0   5   9    0.32    0.12
   0   5  -9    0.68    0.62
   0   5  -9    0.27    0.10
   1  -5   9   12.64    0.75
   1  -5   9   13.88    0.70
  -1  -5  -9   16.53    3.58
  -1   5  -9   12.77    3.12
  -1   5  -9   12.63    0.87
  -1   5  -9   13.44    3.17
   1   5   9   12.95    2.70
   1   5   9   13.41    0.83
  -1   5  -9   14.13    0.78
  -2  -5  -9    1.11    1.14
   2  -5   9    1.80    0.22
   2   5   9    1.28    0.94
  -2   5  -9    1.90    0.33
  -2   5  -9    2.64    0.30
  -2   5  -9    2.57    1.12
  -3  -5  -9    6.84    2.38
   3  -5   9   10.08    2.66
   3  -5   9    7.15    0.50
   3   5   9    8.76    2.54
  -3   5  -9    8.46    0.58
  -3   5  -9    4.43    1.95
  -4  -5  -9   -0.14    1.19
   4  -5   9    0.43    0.14
   4  -5   9    0.58    0.79
   4   5   9    0.63    0.97
  -4   5  -9    1.28    1.44
   4   5   9    0.01    0.11
   5  -5   9    4.79    1.97
   5  -5   9    3.03    0.49
  -5  -5  -9    4.25    2.53
  -5   5  -9    3.11    1.84
   5   5   9    2.37    0.48
   5   5   9    0.43    1.49
   6  -5   9    1.76    1.95
   6  -5   9    1.40    0.34
  -6  -5  -9   -0.04    2.00
   6   5   9    1.12    2.20
  -6   5  -9   -1.88    1.73
   6   5   9    1.13    0.33
   7  -5   9   19.26    4.71
  -7  -5  -9   19.52    6.12
   7  -5   9   19.82    1.26
   7   5   9   23.53    6.16
  -7   5  -9   19.48    5.46
   7   5   9   19.51    1.45
   8  -5   9   -0.16    1.93
   8  -5   9    1.94    0.44
  -8  -5  -9    2.30    3.28
   8   5   9    7.09    3.99
   8   5   9    2.76    0.59
  -8   5  -9   -4.42    3.02
   9  -5   9    5.44    0.64
   9  -5   9    4.63    0.69
   9  -5   9    4.76    4.23
  -9  -5  -9    7.91    5.07
   9   5   9    5.41    4.30
  -9   5  -9    2.86    4.42
   9   5   9    5.22    0.93
   9  -6  -9    7.12    0.64
   9  -6  -9    6.36    3.90
  -9  -6   9    9.15    3.57
  -9   6   9   10.67    2.79
   9   6  -9    8.07    0.84
   9   6  -9    8.35    1.66
   9   6  -9   -4.58    4.65
   8  -6  -9    0.48    0.18
   8  -6  -9   -0.68    1.81
  -8  -6   9    1.68    2.94
   8   6  -9    0.46    0.22
   8   6  -9   -4.66    2.89
  -8   6   9   -0.98    0.95
   8   6  -9    0.46    0.23
   7  -6  -9   18.54    1.00
  -7  -6   9   19.89    4.99
   7  -6  -9   15.66    5.31
   7   6  -9   19.25    1.22
   7   6  -9   13.30    4.67
   7   6  -9   17.53    1.20
  -7   6   9   15.86    4.59
   6  -6  -9    0.25    1.13
   6  -6  -9    0.00    0.11
  -6  -6   9   -2.05    1.37
   6   6  -9    0.43    0.16
  -6   6   9    0.26    0.58
   6   6  -9    0.02    0.14
   6   6  -9    1.25    1.79
  -5  -6   9    1.31    1.44
   5  -6  -9    1.04    0.94
   5  -6  -9    1.05    0.22
  -5   6   9    1.54    0.75
   5   6  -9    1.80    0.36
   5   6  -9    0.76    0.22
   5   6  -9    1.25    1.69
  -5   6   9    1.60    0.24
   4  -6  -9    2.32    0.69
   4  -6  -9    2.19    0.32
   4  -6  -9    2.16    0.84
  -4  -6   9    0.58    0.96
  -4   6   9    2.60    0.28
   4   6  -9    0.98    1.73
  -4   6   9    2.69    0.24
   4   6  -9    1.95    0.35
   4   6  -9    2.24    0.39
  -3  -6   9    9.07    2.74
   3  -6  -9   10.85    0.65
   3  -6  -9   10.35    1.23
   3  -6  -9   10.02    1.02
   3   6  -9   10.70    3.04
   3   6  -9   10.80    0.76
  -3   6   9   11.61    0.65
   3   6  -9   10.88    0.70
   2  -6  -9    8.45    0.58
  -2  -6   9    6.41    1.93
   2  -6  -9    8.02    0.99
   2  -6  -9    8.22    1.06
   2   6  -9    8.21    0.57
   2   6  -9    8.94    0.64
   2   6  -9    6.29    2.35
  -2   6   9    8.91    0.54
   1  -6  -9   34.63    2.93
  -1  -6   9   33.49    1.45
  -1  -6   9   30.31    4.00
   1  -6  -9   33.25    2.43
   1  -6  -9   35.04    1.55
   1   6  -9   29.97    4.07
  -1   6   9   34.85    1.44
   1   6  -9   33.68    1.43
   1   6  -9   35.49    1.54
   0  -6   9    6.25    0.44
   0   6   9    5.62    0.46
   0   6  -9    5.93    0.44
   0   6  -9    5.48    1.97
   0   6  -9    5.78    1.84
   0   6  -9    5.41    0.46
   1  -6   9    7.48    0.46
  -1  -6  -9   10.23    2.55
   1   6   9    5.95    0.55
   1   6   9    6.13    1.80
  -1   6  -9    6.29    0.49
  -1   6  -9    3.72    1.63
  -1   6  -9    7.29    0.53
  -1   6  -9    6.90    1.94
   2  -6   9    1.39    0.22
  -2  -6  -9    1.64    1.07
  -2   6  -9    1.14    0.88
  -2   6  -9    0.68    0.98
   2   6   9    0.24    0.80
  -2   6  -9    1.16    0.28
  -2   6  -9    1.62    0.29
  -3  -6  -9   12.79    3.32
   3  -6   9   18.87    0.89
   3   6   9   21.46    4.30
  -3   6  -9   16.78    4.07
  -3   6  -9   17.85    0.97
   4  -6   9    3.07    0.32
  -4  -6  -9    2.91    1.78
   4  -6   9    0.87    1.05
   4   6   9    1.79    1.65
   4   6   9    1.99    0.40
  -4   6  -9    1.97    0.33
  -4   6  -9    2.48    1.94
   5  -6   9   18.96    1.16
   5  -6   9   14.94    3.47
  -5  -6  -9   16.41    4.32
   5   6   9   22.00    1.38
   5   6   9   26.40    5.93
  -5   6  -9   21.89    5.53
   6  -6   9   -0.01    1.36
  -6  -6  -9    0.54    1.75
   6  -6   9    0.30    0.18
   6   6   9    1.47    1.44
  -6   6  -9   -1.88    1.40
  -7  -6  -9    1.06    2.27
   7  -6   9    0.71    0.24
   7  -6   9   -2.92    1.80
   7   6   9   -0.33    2.28
   7   6   9    0.82    0.34
   8  -6   9    0.96    0.32
   8  -6   9   -2.78    2.23
  -8  -6  -9    1.63    3.66
  -8   6  -9    1.30    3.12
   8   6   9    0.62    3.12
   8   6   9    0.68    0.38
   9  -6   9    6.64    0.72
  -9  -6  -9    5.66    5.53
   9  -6   9    6.74    0.72
   9   6   9    5.78    0.96
   9   6   9    6.05    0.92
   9   6   9    0.64    4.21
  -8  -7   9    3.12    3.12
   8  -7  -9   -0.13    1.61
   8  -7  -9    0.35    0.19
  -8   7   9    0.63    1.23
   8   7  -9   -1.71    3.87
   8   7  -9    0.56    0.25
   8   7  -9    0.57    0.29
   7  -7  -9    1.59    0.27
   7  -7  -9    2.10    1.51
  -7  -7   9    1.24    2.47
  -7   7   9    0.64    0.96
   7   7  -9   -0.64    2.19
   7   7  -9    1.24    0.33
   7   7  -9    1.62    0.37
   6  -7  -9    2.08    0.33
   6  -7  -9    1.31    1.12
  -6  -7   9    0.64    1.87
  -6   7   9    2.06    0.90
   6   7  -9    1.07    2.17
   6   7  -9    2.44    0.45
   6   7  -9    2.09    0.40
   5  -7  -9   20.96    1.82
  -5  -7   9   13.74    5.28
   5  -7  -9   19.00    0.93
  -5   7   9   18.23    0.91
   5   7  -9   17.62    1.17
   5   7  -9   11.37    5.24
   5   7  -9   16.11    1.05
   4  -7  -9    0.45    0.15
  -4  -7   9    1.07    1.15
   4   7  -9    0.37    0.20
   4   7  -9   -0.23    0.81
  -4   7   9    0.48    0.14
   4   7  -9    0.04    0.11
  -3  -7   9    2.02    1.32
   3  -7  -9    1.06    0.22
   3   7  -9    2.76    1.38
   3   7  -9    0.60    0.18
   3   7  -9    0.76    0.24
  -3   7   9    1.09    0.20
   2  -7  -9    0.02    0.09
   2   7  -9    0.41    1.18
  -2   7   9    0.03    0.08
   2   7  -9   -0.04    0.06
   2   7  -9   -0.10    0.07
   1  -7  -9    2.26    0.60
   1  -7  -9    2.29    0.74
   1   7  -9    1.50    1.11
   1   7  -9    1.54    0.25
   1   7  -9    2.29    0.36
  -1   7   9    1.25    0.25
   0  -7  -9    6.15    1.60
   0  -7   9    4.00    0.35
   0   7  -9    3.95    0.40
   0   7   9    5.15    1.35
   0   7  -9    3.66    1.45
   0   7  -9    2.99    1.37
   0   7   9    4.37    0.40
   0   7  -9    3.74    0.35
  -1  -7  -9   14.14    3.00
   1  -7   9   19.58    0.89
  -1   7  -9   16.48    3.49
   1   7   9   19.59    2.74
  -1   7  -9   19.19    0.97
  -1   7  -9   18.52    1.00
  -1   7  -9   20.92    3.32
  -2  -7  -9    0.79    0.89
  -2   7  -9    0.62    0.17
  -2   7  -9    0.53    0.63
  -2   7  -9    0.64    0.62
  -2   7  -9    0.38    0.15
   2   7   9    0.39    0.76
   3  -7   9    3.83    0.32
  -3  -7  -9    2.51    2.22
   3   7   9    3.06    0.50
  -3   7  -9    4.80    2.18
  -3   7  -9    1.15    0.98
   3   7   9    4.73    2.04
  -3   7  -9    3.00    0.35
  -4  -7  -9    6.17    2.30
   4  -7   9    2.11    1.31
   4  -7   9    5.20    0.42
  -4   7  -9    8.54    2.93
   4   7   9    4.60    0.56
  -4   7  -9    4.81    0.47
   4   7   9    3.01    1.79
  -5  -7  -9    4.60    2.64
   5  -7   9    2.82    0.45
   5   7   9    3.69    0.63
  -5   7  -9    3.02    2.20
   5   7   9    4.54    2.16
   6  -7   9    0.20    0.19
  -6  -7  -9   -0.30    2.16
  -6   7  -9    2.51    2.59
   6   7   9    0.97    0.33
   7  -7   9    6.44    0.61
  -7  -7  -9    3.19    3.31
   7   7   9   11.38    4.72
   7   7   9    6.52    0.78
  -7   7  -9    3.00    2.75
  -8  -7  -9    5.06    4.29
   8  -7   9    8.43    0.74
  -8   7  -9    4.62    2.85
   8   7   9    8.90    0.97
   8   7   9    9.91    4.17
   8  -8  -9    0.86    2.52
   8  -8  -9    3.42    0.44
  -8  -8   9    2.07    3.04
   8   8  -9    9.15    5.24
   8   8  -9    2.42    0.73
   7  -8  -9    0.87    0.95
   7  -8  -9    3.35    0.38
  -7  -8   9    4.66    1.95
   7   8  -9    3.49    0.57
  -7   8   9    3.12    0.97
   7   8  -9   -1.94    3.05
   7   8  -9    2.65    0.51
  -6  -8   9    5.52    2.04
   6  -8  -9    1.96    0.31
   6   8  -9   -1.58    2.35
   6   8  -9    2.33    0.44
   6   8  -9    1.86    0.37
   5  -8  -9    2.67    0.36
  -5  -8   9   -0.14    1.78
   5   8  -9    3.24    2.44
   5   8  -9    3.43    0.57
  -5   8   9    2.43    0.34
   5   8  -9    2.50    0.42
   4  -8  -9   20.81    1.03
  -4  -8   9   20.13    4.32
   4   8  -9   20.87    1.17
   4   8  -9   20.17    4.92
   4   8  -9   22.55    1.30
  -4   8   9   21.94    1.03
  -3  -8   9    2.17    1.34
   3  -8  -9    0.86    0.23
   3   8  -9    0.66    0.19
   3   8  -9    1.33    0.31
  -3   8   9    0.82    0.18
  -2  -8   9    6.76    2.24
   2  -8  -9    8.15    0.61
   2   8  -9    9.25    0.71
  -2   8   9    8.90    0.56
   2   8  -9    7.80    2.86
   2   8  -9    9.06    0.61
  -1  -8   9    1.21    1.25
   1   8  -9    0.44    0.16
  -1   8   9    0.41    0.13
   1   8  -9    0.83    1.01
   1   8  -9    0.50    0.17
   0  -8   9   13.30    0.75
   0  -8  -9   14.66    2.15
   0   8   9   13.79    0.80
   0   8   9   13.02    1.72
   0   8  -9   13.02    0.75
   0   8  -9   15.37    3.68
   0   8  -9   14.37    0.86
   0   8  -9   12.78    3.01
   1  -8   9    0.90    0.17
  -1  -8  -9    1.38    1.19
  -1   8  -9    0.85    0.22
   1   8   9    1.48    0.86
  -1   8  -9    1.67    1.27
  -1   8  -9    0.62    0.19
  -1   8  -9   -0.32    0.57
   2  -8   9    0.54    0.15
  -2  -8  -9    0.86    0.99
   2   8   9    0.75    0.20
  -2   8  -9    0.67    0.18
  -2   8  -9    0.78    0.23
  -2   8  -9    1.01    0.82
  -2   8  -9    0.27    0.82
   2   8   9    0.80    1.04
   3  -8   9    3.74    0.35
  -3  -8  -9    3.53    2.04
  -3   8  -9    1.12    1.39
   3   8   9    0.46    1.38
  -3   8  -9    2.19    1.40
  -3   8  -9    4.32    0.43
   3   8   9    3.58    0.44
  -4  -8  -9    2.54    1.77
   4  -8   9    2.64    0.27
  -4   8  -9    2.59    0.41
   4   8   9   -0.10    1.61
   4   8   9    2.60    0.48
  -4   8  -9    2.04    1.78
   5  -8   9    5.34    0.53
   5  -8   9    4.40    1.77
   5  -8   9    5.23    0.43
  -5  -8  -9    5.70    2.96
   5   8   9    5.04    0.64
  -5   8  -9    3.01    2.44
   6  -8   9   10.64    0.75
  -6  -8  -9    4.97    3.12
   6  -8   9    5.51    2.38
  -6   8  -9    6.42    3.46
   6   8   9    7.33    4.06
   6   8   9    9.66    0.94
   7  -8   9    2.10    1.89
  -7  -8  -9    2.84    2.92
   7   8   9   -2.29    2.54
  -7   8  -9    3.06    3.00
   8  -8   9   -0.86    3.11
   8  -8   9    3.60    0.50
   8  -8   9    3.14    0.53
  -8   8  -9    6.97    4.18
  -7  -9   9   -0.18    2.56
   7  -9  -9    0.15    0.15
   7   9  -9    0.10    0.18
   7   9  -9    2.58    4.73
   6  -9  -9   10.29    0.66
  -6  -9   9   12.38    4.06
   6   9  -9   10.74    0.92
   6   9  -9   10.13    0.83
   6   9  -9    9.65    4.09
  -5  -9   9    0.58    1.44
   5  -9  -9    1.80    0.27
   5   9  -9    1.09    0.31
   5   9  -9    0.23    1.79
  -5   9   9    1.80    0.28
   5   9  -9    2.42    0.44
  -4  -9   9    0.17    1.35
   4  -9  -9    0.54    0.16
   4   9  -9    2.59    2.33
   4   9  -9    1.01    0.24
   4   9  -9    1.53    0.35
   3  -9  -9    3.84    0.41
  -3  -9   9    2.81    1.85
   3   9  -9    4.20    0.43
   3   9  -9    5.13    0.55
  -3   9   9    4.76    0.35
   3   9  -9    0.81    1.71
  -2  -9   9   12.79    3.40
   2   9  -9   14.22    0.94
   2   9  -9   13.81    0.81
   2   9  -9   12.85    3.44
  -1  -9   9    1.84    1.26
  -1   9   9    1.31    0.24
   1   9  -9    1.39    0.30
   1   9  -9    1.15    0.23
   1   9  -9   -0.36    1.01
   0  -9  -9   12.39    1.83
   0  -9   9   14.44    0.79
   0   9  -9   14.33    0.79
   0   9   9   13.92    0.82
   0   9  -9   13.41    0.87
   0   9  -9   16.33    3.65
   0   9   9   15.71    1.79
   1  -9   9    2.21    0.27
  -1  -9  -9    1.08    1.10
  -1   9  -9    3.20    0.37
  -1   9  -9    2.36    0.34
  -1   9  -9    3.59    1.37
  -1   9  -9    1.41    1.20
   1   9   9    2.15    1.20
   2  -9   9    2.48    0.26
  -2  -9  -9    2.98    1.54
   2   9   9    1.76    0.54
  -2   9  -9    2.75    0.35
  -2   9  -9    3.17    0.35
  -2   9  -9    1.86    1.42
  -2   9  -9    2.30    1.49
   3  -9   9    2.04    0.24
  -3  -9  -9    3.40    1.79
   3  -9   9    2.16    0.32
  -3   9  -9    5.53    2.67
   3   9   9    2.25    0.44
  -3   9  -9    2.47    1.47
  -3   9  -9    2.41    0.41
   4  -9   9   18.68    1.06
   4  -9   9   19.68    0.86
   4  -9   9   18.69    0.97
   4   9   9   18.09    1.25
  -4   9  -9   15.29    4.05
  -4   9  -9   20.03    1.12
   5  -9   9    0.53    0.18
  -5  -9  -9    0.28    1.83
   5  -9   9    0.23    0.17
   5  -9   9    0.35    0.18
  -5   9  -9    0.62    0.20
   5   9   9    0.26    2.20
   5   9   9    0.24    0.31
   6  -9   9   10.32    0.70
  -6  -9  -9    5.87    4.43
   6   9   9    9.54    4.26
   6   9   9   10.05    0.97
  -6   9  -9    5.95    3.56
   7  -9   9    2.87    2.30
   7  -9   9    0.53    0.22
   7  -9   9    0.99    0.29
   7   9   9    0.17    0.20
  -7   9  -9   -1.53    3.21
  -7 -10   9   -2.74    2.67
   7  10  -9    0.99    0.32
   7  10  -9    0.50    0.28
   7  10  -9    3.80    4.21
  -6 -10   9    1.86    3.34
   6  10  -9    7.38    0.79
   6  10  -9    1.64    3.99
   6  10  -9    5.56    0.61
  -5 -10   9    0.71    1.55
   5  10  -9   -0.05    0.13
   5  10  -9    0.17    0.15
  -4 -10   9    5.84    2.59
   4  10  -9    6.43    0.58
   4  10  -9    5.31    0.60
   4  10  -9    6.50    2.87
  -3 -10   9    1.69    1.29
  -3  10   9    1.41    0.21
   3  10  -9    1.19    0.33
   3  10  -9    2.14    1.92
   3  10  -9    1.48    0.29
  -2 -10   9    2.45    1.47
   2  10  -9    3.07    2.07
   2  10  -9    2.40    0.45
   2  10  -9    2.54    0.37
  -2  10   9    2.20    0.24
   1  10  -9    0.48    0.17
   1  10  -9    0.75    1.15
  -1  10   9    0.94    0.19
   1  10  -9    0.57    0.19
   0 -10   9   14.85    0.86
   0 -10  -9   18.68    1.83
   0  10  -9   14.84    3.49
   0  10  -9   16.86    1.01
   0  10  -9    8.87    2.67
   0  10  -9   15.24    0.84
   0  10   9   17.04    1.72
   1 -10   9    1.92    0.28
  -1 -10  -9    2.66    1.29
  -1  10  -9    2.36    1.19
  -1  10  -9    3.12    1.39
   1  10   9    1.97    1.27
  -1  10  -9    2.38    0.40
  -1  10  -9    2.32    0.35
   1  10   9    2.64    0.33
   2 -10   9   17.54    0.95
   2 -10   9   18.53    0.84
  -2 -10  -9   17.19    3.78
   2  10   9   16.99    1.07
  -2  10  -9   16.73    0.95
  -2  10  -9   17.46    1.03
  -2  10  -9   18.15    4.12
   3 -10   9    7.54    0.55
  -3 -10  -9    3.49    2.64
  -3  10  -9    5.69    3.35
  -3  10  -9    8.21    0.65
  -3  10  -9    6.62    2.83
   3  10   9    8.62    0.76
  -4 -10  -9    1.81    1.84
   4 -10   9    0.16    0.17
  -4  10  -9   -1.33    1.02
  -4  10  -9    0.50    1.67
  -4  10  -9    0.22    0.16
   4  10   9    0.73    0.23
   4  10   9   -0.51    1.83
   5 -10   9    0.13    0.17
  -5  10  -9   -0.02    0.14
  -5  10  -9    0.53    1.97
   5  10   9    0.48    0.25
   6  10   9   10.95    1.03
  -6  10  -9    7.34    3.27
  -7  10  -9    2.98    3.84
  -6 -11   9    0.66    3.53
   6  11  -9    7.91    4.24
   6  11  -9    5.17    0.61
   6  11  -9    5.21    1.01
  -5 -11   9    1.99    2.55
   5  11  -9    1.60    0.36
   5  11  -9    1.68    0.41
  -4 -11   9   -0.06    2.18
   4  11  -9    2.49    0.44
   4  11  -9    2.10    0.44
   4  11  -9    6.40    3.30
  -3 -11   9   -3.28    2.89
   3  11  -9    2.48    0.44
  -2 -11   9   -0.80    1.00
   2  11  -9    0.37    0.17
   2  11  -9   -0.24    0.08
   1  11  -9    0.63    0.21
   1  11  -9    0.30    0.14
  -1  11   9    0.70    0.15
   0 -11   9    6.11    0.52
   0  11  -9    5.20    0.54
   0  11  -9    3.02    1.63
   0  11   9    5.49    0.47
   0  11  -9    5.98    0.47
   1 -11   9    4.97    0.70
  -1 -11  -9    3.81    1.56
   1 -11   9    4.26    0.57
   1  11   9    3.97    1.54
  -1  11  -9    0.78    2.16
  -1  11  -9    4.07    0.39
   1  11   9    3.33    0.41
  -1  11  -9    2.54    1.41
  -1  11  -9    4.68    0.48
   2 -11   9    1.84    0.29
  -2 -11  -9    0.55    1.48
  -2  11  -9   -1.08    1.38
   2  11   9    1.77    0.35
  -2  11  -9    2.22    0.42
   2  11   9    3.02    1.57
  -2  11  -9    0.98    1.47
   3 -11   9    1.01    0.25
  -3 -11  -9    0.01    1.36
  -3  11  -9    0.86    0.24
  -3  11  -9   -1.45    1.16
  -3  11  -9   -1.68    0.99
   3  11   9   -0.50    1.17
   4  11   9    3.26    0.55
  -4  11  -9    1.66    1.89
  -5  11  -9    5.45    3.28
  -5  11  -9    7.04    0.64
   5  11   9    6.81    0.80
   6  11   9    0.37    0.27
  -6  11  -9   -0.60    3.12
   5  12  -9    6.83    0.66
   5  12  -9    6.26    0.73
   4  12  -9    0.25    0.12
   4  12  -9    0.63    0.20
  -3 -12   9    3.74    2.35
   3  12  -9    8.30    3.33
   3  12  -9    5.32    0.60
   3  12  -9    5.70    0.52
  -2 -12   9    5.42    2.51
   2  12  -9    1.72    2.06
   2  12  -9    3.41    0.53
   2  12  -9    3.13    0.38
   1  12  -9   17.72    1.14
   1  12  -9   15.58    3.81
   1  12  -9   21.25    4.62
   1  12  -9   17.81    0.95
   0  12  -9    1.38    0.35
   0  12  -9    1.36    0.25
   0  12  -9    1.03    1.71
   0  12   9    1.58    0.30
   0  12  -9   -0.23    1.14
  -1 -12  -9    1.40    1.11
  -1  12  -9    2.85    0.68
  -1  12  -9    0.76    2.08
  -1  12  -9    1.95    0.31
   1  12   9    3.23    1.45
  -1  12  -9    2.70    1.96
   2  12   9    0.55    0.26
  -2  12  -9    0.11    1.95
  -2  12  -9    0.92    0.39
  -3  12  -9    0.46    1.98
  -3  12  -9    0.76    0.22
   3  12   9    0.65    0.23
  -4  12  -9    2.75    2.76
  -5  12  -9    5.30    0.62
  -5  12  -9    8.41    4.45
   5  12   9    7.71    0.81
   4  13  -9    0.99    0.31
   4  13  -9    1.31    0.29
   3  13  -9    9.77    0.88
   3  13  -9    8.96    0.70
   2  13  -9   -0.01    0.14
   2  13  -9    0.19    0.13
   1  13  -9    0.86    0.29
   1  13  -9   -0.41    1.48
   0  13  -9    1.24    1.65
   0  13   9    2.05    0.36
   0  13  -9    1.34    0.26
   0  13  -9    1.70    0.35
   1  13   9    9.97    0.77
  -1  13  -9    4.93    3.84
  -1  13  -9   11.30    0.85
  -2  13  -9    0.44    0.18
   2  13   9    0.84    0.26
  -2  13  -9   -1.00    1.26
  -3  13  -9    3.04    2.67
  -3  13  -9    9.43    0.74
   3  13   9    9.52    0.89
   4  13   9    4.23    0.70
  -4  13  -9    5.14    3.98
   4  13   9    4.97    0.77
  -4  13  -9    4.33    0.61
   3  14  -9    1.49    0.32
   3  14  -9    1.58    0.42
   2  14  -9    0.05    0.15
   2  14  -9    0.30    0.20
   1  14  -9    3.25    0.59
   1  14  -9    2.76    1.86
   1  14  -9    2.89    0.33
   0  14  -9   -1.41    1.66
   0  14   9    0.47    0.21
   0  14  -9   -0.38    0.13
   1  14   9    0.43    0.25
   1  14   9    0.62    0.23
  -1  14  -9    0.26    0.20
  -1  14  -9   -0.35    1.81
  -2  14  -9    0.86    0.26
   2  14   9    0.84    0.27
  -2  14  -9    1.89    2.51
   2  14   9    0.78    0.31
   3  14   9    5.34    0.63
  -3  14  -9    5.43    2.83
  -3  14  -9    4.97    0.56
   9   0 -10    0.37    0.15
   9   0 -10    0.08    0.12
   9   0 -10   -2.91    3.05
  -9   0  10    0.38    2.38
   8   0 -10   36.02    1.57
   8   0 -10   35.79    1.78
  -8   0  10   30.79    5.27
   7   0 -10    1.78    2.74
   7   0 -10    0.20    0.11
  -7   0  10   -1.25    0.79
   7   0 -10    0.29    0.14
   6   0 -10    9.78    0.61
  -6   0  10    7.59    2.33
   6   0 -10    9.43    0.70
  -5   0  10   -0.37    0.52
   5   0 -10    0.27    0.10
   4   0 -10   48.08    1.96
  -4   0  10   43.13    4.58
   4   0 -10   49.79    1.84
  -3   0  10   -0.10    0.05
  -3   0  10    0.17    0.56
   3   0 -10    0.11    0.07
   3   0 -10    0.10    0.07
  -2   0  10    8.84    0.60
   2   0 -10    8.68    0.49
   2   0 -10    8.66    0.57
  -2   0  10    7.53    1.90
  -2   0  10    9.65    0.58
   1   0 -10   -0.34    0.54
   1   0 -10    0.16    0.06
   1   0 -10    0.01    0.05
  -1   0  10    0.11    0.07
  -1   0  10    0.06    0.08
   1   0 -10   -0.46    0.43
   0   0  10    0.16    0.08
   0   0  10   -0.09    0.05
   0   0 -10    0.11    0.08
   0   0 -10    0.17    0.52
   0   0 -10    0.11    0.06
   0   0 -10    0.10    0.40
  -1   0 -10    0.69    0.68
   1   0  10    0.00    0.46
  -1   0 -10    0.05    0.08
   1   0  10    0.44    0.10
   1   0  10    0.22    0.11
  -2   0 -10   15.92    3.84
   2   0  10   12.61    2.84
   2   0  10   12.50    0.79
   2   0  10   10.26    0.81
  -2   0 -10   11.99    0.86
  -3   0 -10   -0.87    0.78
   3   0  10    1.25    1.02
   4   0  10   65.46    6.68
  -4   0 -10   59.35    7.00
  -5   0 -10   -1.22    1.70
   5   0  10   -0.56    0.72
   6   0  10    5.80    0.68
  -6   0 -10    5.38    2.62
   6   0  10    7.97    3.41
  -7   0 -10    1.86    2.90
   7   0  10   -1.08    2.05
   8   0  10   35.28    2.06
  -8   0 -10   22.71    6.78
   8   0  10   36.18    6.34
  -9   0 -10   -3.19    3.41
   9   0  10    1.46    2.94
   9   0  10    0.57    0.26
  -9  -1  10   35.92    7.31
   9  -1 -10   20.38    6.17
   9  -1 -10   31.11    1.62
   9  -1 -10   27.89    1.31
   9   1 -10   32.43    1.70
  -9   1  10   30.38    5.19
   9   1 -10   29.45    1.61
   9   1 -10   28.87    7.12
   8  -1 -10   -1.45    1.80
  -8  -1  10    2.76    2.10
   8  -1 -10    1.56    0.26
   8  -1 -10    1.66    0.37
   8   1 -10    1.25    0.28
  -8   1  10    2.05    1.59
   8   1 -10    1.65    3.03
   8   1 -10    1.58    0.36
  -7  -1  10   54.46    6.57
   7  -1 -10   52.13    2.06
   7  -1 -10   47.87    7.03
   7  -1 -10   57.52    2.36
   7   1 -10   53.29    7.26
   7   1 -10   55.52    2.24
   7   1 -10   55.55    2.47
  -7   1  10   57.92    6.55
   6  -1 -10    3.97    0.33
   6  -1 -10    4.54    0.44
  -6  -1  10    3.97    1.86
   6  -1 -10    2.31    2.15
   6   1 -10    4.51    0.42
   6   1 -10    3.57    2.11
   6   1 -10    4.13    0.45
  -6   1  10    2.52    1.40
  -5  -1  10  108.48    8.48
   5  -1 -10  101.79    8.81
   5  -1 -10  117.37    3.90
   5  -1 -10  117.47    4.12
   5   1 -10  121.29    4.19
  -5   1  10  115.08    8.16
   5   1 -10  108.28    9.42
   5   1 -10  114.32    4.04
  -4  -1  10    5.61    1.93
   4  -1 -10    3.99    0.29
   4  -1 -10    3.85    1.77
   4  -1 -10    4.17    0.38
   4   1 -10    4.11    1.87
  -4   1  10    3.87    1.35
   4   1 -10    3.69    0.37
   4   1 -10    3.62    0.35
   3  -1 -10  205.39    7.23
   3  -1 -10  250.90   13.48
  -3  -1  10  239.30   12.93
   3   1 -10  243.99   14.01
   3   1 -10  217.93    7.37
  -3   1  10  251.31   12.31
   3   1 -10  206.29    7.44
  -3   1  10  217.85    7.43
  -2  -1  10    0.62    0.16
  -2  -1  10    0.39    0.73
   2  -1 -10   -0.10    0.47
   2  -1 -10    0.07    0.05
   2  -1 -10    0.11    0.07
   2   1 -10   -0.62    0.45
  -2   1  10    0.08    0.07
   2   1 -10    0.04    0.06
   2   1 -10    0.25    0.11
  -2   1  10    0.26    0.09
  -1  -1  10    0.05    0.07
   1  -1 -10    0.34    0.09
   1  -1 -10    0.55    0.48
   1  -1 -10    0.63    0.66
   1  -1 -10    0.17    0.08
  -1  -1  10    0.34    0.11
   1   1 -10    0.14    0.07
  -1   1  10    0.13    0.07
   1   1 -10    0.19    0.08
   1   1 -10    0.59    0.62
   1   1 -10   -0.07    0.43
  -1   1  10    0.35    0.12
   0  -1  10   15.25    0.80
   0  -1  10   15.63    0.80
   0  -1 -10   15.27    0.87
   0  -1 -10   14.69    2.57
   0   1  10   15.75    0.84
   0   1 -10   15.01    0.75
   0   1 -10   17.36    2.86
   0   1  10   16.31    0.86
   0   1 -10   14.73    2.57
   0   1 -10   15.20    0.84
   1  -1  10    0.08    0.08
   1  -1  10   -0.02    0.51
  -1  -1 -10   -0.43    0.64
  -1  -1 -10    0.31    0.15
   1  -1  10    0.22    0.11
   1   1  10   -0.24    0.41
   1   1  10    0.16    0.09
  -1   1 -10    0.06    0.06
  -1   1 -10    0.04    0.60
   1   1  10    0.24    0.09
  -1   1 -10    0.02    0.05
   2  -1  10    0.31    0.12
  -2  -1 -10   -1.23    0.84
   2  -1  10   -0.64    0.56
   2   1  10   -0.33    0.45
   2   1  10    0.28    0.12
  -2   1 -10    0.31    0.14
  -2   1 -10    1.45    1.18
  -3  -1 -10  252.37   16.16
   3  -1  10  256.28   14.91
  -3   1 -10  226.86   15.32
   3   1  10  244.71   14.84
   4  -1  10    3.97    1.73
  -4  -1 -10    4.04    2.20
   4   1  10    2.67    1.51
  -4   1 -10    0.94    1.16
  -5  -1 -10   94.33    9.90
   5  -1  10  111.89    9.52
   5   1  10  110.24    9.67
  -5   1 -10  111.66   10.55
   5   1  10  108.99    4.28
   6  -1  10    7.13    2.94
   6  -1  10    5.70    0.67
  -6  -1 -10    5.77    3.03
   6   1  10    5.44    0.81
  -6   1 -10    4.78    3.08
   6   1  10    2.97    1.96
   7  -1  10   56.99    3.77
   7  -1  10   58.34    7.98
  -7  -1 -10   47.23    8.00
   7   1  10   60.63    2.84
  -7   1 -10   50.73    8.23
   7   1  10   51.10    7.65
   8  -1  10   -1.22    2.22
   8   1  10   -1.04    2.21
   8   1  10    0.15    0.28
   9  -1  10   34.01    8.35
   9  -1  10   32.16    1.98
  -9  -1 -10   33.09    9.21
  -9   1 -10   25.04    7.40
   9   1  10   33.04    2.04
   9   1  10   30.23    6.82
  -9  -2  10    9.98    4.30
   9  -2 -10    8.75    7.91
   9  -2 -10   18.82    1.16
   9   2 -10   17.63    1.10
   9   2 -10   27.42    7.52
   9   2 -10   18.30    1.24
   8  -2 -10   16.24    1.03
   8  -2 -10   10.45    4.72
  -8  -2  10   21.70    4.83
   8   2 -10   18.24    1.16
   8   2 -10   18.86    5.38
   8   2 -10   15.77    1.14
  -8   2  10   13.26    3.18
   7  -2 -10    2.32    2.27
   7  -2 -10    3.40    0.40
  -7  -2  10    3.54    2.68
  -7   2  10    0.20    1.36
   7   2 -10    2.91    0.49
   7   2 -10    4.58    3.41
   7   2 -10    2.58    0.40
   6  -2 -10   55.52    1.96
   6  -2 -10   49.53    6.47
  -6  -2  10   58.57    6.49
   6  -2 -10   55.09    2.25
   6   2 -10   57.67    2.29
  -6   2  10   55.68    5.62
   6   2 -10   45.60    6.84
   6   2 -10   55.66    2.37
   5  -2 -10    0.60    1.10
   5  -2 -10    1.44    0.27
   5  -2 -10    1.79    0.17
  -5  -2  10    1.59    1.23
  -5   2  10    1.47    1.16
   5   2 -10    1.56    0.31
   5   2 -10    2.37    1.36
   5   2 -10    1.72    0.29
   4  -2 -10  127.00    8.74
   4  -2 -10  120.65    4.12
  -4  -2  10  113.71    8.36
   4   2 -10  115.27    4.11
   4   2 -10  106.96    8.96
  -4   2  10  116.80    7.38
   4   2 -10  111.85    4.15
  -4   2  10  119.72    4.43
   3  -2 -10   87.06    3.00
   3  -2 -10   89.82    3.27
  -3  -2  10   99.87    7.80
   3  -2 -10  102.42    7.63
   3   2 -10   94.27    8.30
  -3   2  10  104.97    6.82
   3   2 -10   84.26    3.28
  -3   2  10   91.86    3.24
   3   2 -10   87.80    3.42
   2  -2 -10    0.41    0.52
   2  -2 -10    1.22    0.91
  -2  -2  10   -0.03    0.56
   2   2 -10   -0.18    0.45
  -2   2  10    0.25    0.10
  -2   2  10    0.09    0.08
   2   2 -10    0.45    0.14
   1  -2 -10   36.93    3.79
  -1  -2  10   33.94    1.49
   1  -2 -10   34.87    3.64
  -1  -2  10   35.35    1.48
   1  -2 -10   35.05    1.52
   1   2 -10   39.40    4.57
   1   2 -10   37.77    1.52
  -1   2  10   35.04    1.48
  -1   2  10   34.12    1.38
   1   2 -10   35.33    1.44
   0  -2  10    0.17    0.08
   0  -2 -10    0.08    0.05
   0  -2 -10    0.36    0.45
   0  -2  10    0.09    0.07
   0   2 -10    0.72    0.77
   0   2  10    0.14    0.09
   0   2 -10   -0.08    0.05
   0   2 -10    0.66    0.64
   0   2  10    0.10    0.06
   0   2 -10    0.24    0.10
   1  -2  10   34.26    1.44
   1  -2  10   34.68    1.46
  -1  -2 -10   33.40    1.62
  -1  -2 -10   36.50    4.56
   1   2  10   38.75    4.39
  -1   2 -10   33.73    1.54
   1   2  10   31.91    1.37
  -1   2 -10   39.92    4.70
  -2  -2 -10    1.13    0.97
   2  -2  10    0.19    0.10
   2  -2  10    1.08    0.83
  -2   2 -10   -0.34    0.81
   2   2  10    0.26    0.10
   2   2  10    0.51    0.68
  -2   2 -10    0.24    0.15
  -2   2 -10    0.28    0.12
  -3  -2 -10   90.28    9.01
   3  -2  10   90.59    8.18
  -3   2 -10   96.07    9.13
   3   2  10   93.24    8.45
  -4  -2 -10   98.37    9.29
   4  -2  10   90.95    8.14
   4   2  10  102.83    8.71
  -4   2 -10   98.82    9.28
   5  -2  10    0.44    0.97
  -5  -2 -10    1.21    1.65
  -5   2 -10   -1.47    1.44
   5   2  10    1.18    0.30
   5   2  10    0.31    1.28
   6  -2  10   48.48    6.40
  -6  -2 -10   50.41    7.33
   6  -2  10   46.46    2.32
   6   2  10   50.81    7.00
   6   2  10   45.92    2.36
  -6   2 -10   41.27    6.83
  -7  -2 -10    1.15    2.37
   7  -2  10    1.55    0.46
   7  -2  10   -1.30    1.34
  -7   2 -10   -3.18    1.91
   7   2  10    1.16    0.36
   7   2  10    2.61    2.49
   8  -2  10   17.46    5.07
   8  -2  10   15.52    1.26
  -8  -2 -10   15.97    5.92
  -8   2 -10   17.11    5.91
   8   2  10   13.72    5.19
   8   2  10   17.01    1.35
   9  -2  10   10.88    5.58
   9  -2  10   16.93    1.33
  -9  -2 -10   31.82    8.50
  -9   2 -10   14.25    5.70
   9   2  10   21.83    6.12
   9   2  10   14.37    1.31
   9  -3 -10    2.41    3.32
  -9  -3  10    2.94    2.61
   9  -3 -10    0.84    0.26
   9   3 -10    0.24    0.18
   9   3 -10    0.16    0.20
  -9   3  10   -0.21    2.03
   9   3 -10   -0.07    3.82
  -8  -3  10    3.99    2.56
   8  -3 -10    2.98    2.76
   8  -3 -10    3.56    0.42
   8   3 -10    3.47    0.52
  -8   3  10    2.47    2.09
   8   3 -10    2.57    0.48
   8   3 -10    8.05    3.88
  -7  -3  10    4.36    2.39
   7  -3 -10    5.41    0.50
   7  -3 -10    8.65    3.37
  -7   3  10    3.13    1.44
   7   3 -10    5.63    0.58
   7   3 -10    5.58    0.55
   7   3 -10    0.58    2.34
   6  -3 -10    0.81    0.21
   6  -3 -10    2.51    1.86
  -6  -3  10    0.35    1.28
  -6   3  10    1.14    0.90
   6   3 -10    0.72    0.23
   6   3 -10    0.71    0.22
   6   3 -10    0.60    1.70
   5  -3 -10   42.70    1.76
   5  -3 -10   43.03    5.17
  -5  -3  10   41.18    5.24
   5   3 -10   41.24    1.82
   5   3 -10   41.49    1.86
   5   3 -10   34.20    5.42
  -5   3  10   41.70    4.20
  -4  -3  10    0.62    0.98
   4  -3 -10    0.90    0.20
   4  -3 -10    1.63    0.92
   4   3 -10   -0.17    0.65
   4   3 -10    0.48    0.17
  -4   3  10    0.68    0.16
  -4   3  10    0.87    0.73
   4   3 -10    0.91    0.23
   3  -3 -10   14.38    2.35
   3  -3 -10   17.12    0.89
  -3  -3  10   20.14    3.12
   3   3 -10   17.66    0.93
   3   3 -10   17.21    3.76
  -3   3  10   16.20    2.15
   3   3 -10   17.38    0.93
  -3   3  10   18.07    0.87
   2  -3 -10  152.21    5.33
  -2  -3  10  170.75   10.65
   2  -3 -10  170.70    8.62
  -2   3  10  148.06    5.30
   2   3 -10  163.81   11.09
  -2   3  10  152.27    5.19
  -1  -3  10    0.70    0.17
   1  -3 -10    0.71    0.18
   1  -3 -10    0.24    0.55
   1  -3 -10    0.80    0.54
  -1   3  10    0.57    0.15
   1   3 -10    0.35    0.12
   1   3 -10    0.36    0.61
   1   3 -10    0.53    0.14
  -1   3  10    0.98    0.16
   0  -3 -10   21.43    1.12
   0  -3 -10   20.22    3.06
   0  -3  10   21.54    1.25
   0  -3  10   20.58    0.97
   0   3 -10   19.81    1.00
   0   3 -10   24.25    3.56
   0   3 -10   24.17    3.46
   0   3  10   20.92    1.03
   0   3  10   18.51    0.87
   0   3  10   22.07    2.98
   0   3 -10   19.30    0.96
  -1  -3 -10    0.34    0.15
   1  -3  10    0.40    0.13
  -1  -3 -10    0.44    0.68
  -1   3 -10    0.24    0.65
  -1   3 -10    0.19    0.10
   1   3  10    0.20    0.10
  -1   3 -10    0.38    0.13
   1   3  10    0.19    0.87
  -1   3 -10    0.58    1.02
   2  -3  10  173.02   11.00
  -2  -3 -10  166.46   11.62
   2  -3  10  150.84    5.29
   2   3  10  170.05   10.88
  -2   3 -10  146.56    5.27
  -2   3 -10  161.10   11.34
  -2   3 -10  145.16    5.48
   3  -3  10   20.52    3.40
  -3  -3 -10   24.42    4.11
   3   3  10   23.19    3.65
  -3   3 -10   25.98    4.06
   4  -3  10    0.09    0.81
  -4  -3 -10   -1.86    0.87
  -4   3 -10    1.76    1.26
   4   3  10    0.15    1.16
  -5  -3 -10   31.60    7.90
   5  -3  10   48.10    5.98
   5   3  10   47.88    2.33
  -5   3 -10   55.17    7.39
   5   3  10   58.52   11.95
  -6  -3 -10   -0.41    1.97
   6  -3  10    2.96    1.90
   6  -3  10    0.45    0.20
   6   3  10    0.31    0.22
  -6   3 -10    0.89    1.71
   6   3  10    0.07    1.83
  -7  -3 -10    6.70    3.69
   7  -3  10   11.26    3.62
   7  -3  10    8.50    0.83
   7   3  10    8.22    0.88
  -7   3 -10    5.21    3.04
   7   3  10    8.95    3.48
   8  -3  10    3.39    0.66
   8  -3  10    5.22    3.47
  -8  -3 -10    6.63    4.19
   8   3  10    3.59    3.30
   8   3  10    3.10    0.69
  -8   3 -10    8.61    4.54
   9  -3  10    5.20    3.67
  -9  -3 -10   -4.93    3.26
  -9   3 -10    2.53    3.54
   9  -4 -10    8.61    0.71
  -9  -4  10    6.99    3.45
   9  -4 -10    6.05    4.44
   9   4 -10    8.15    0.77
  -9   4  10    7.34    3.23
   9   4 -10   -2.67    5.28
   8  -4 -10   16.11    5.29
  -8  -4  10   13.55    4.04
   8  -4 -10   16.05    0.98
   8   4 -10    5.09    4.02
   8   4 -10   15.23    1.07
   8   4 -10   15.40    1.05
  -8   4  10   12.63    3.24
  -7  -4  10   15.01    4.10
   7  -4 -10   10.84    0.75
   7  -4 -10   11.43    3.68
   7   4 -10   11.59    0.86
   7   4 -10   10.85    0.86
   7   4 -10    5.13    3.20
  -7   4  10    9.81    2.73
   6  -4 -10    7.39    2.45
  -6  -4  10    3.39    2.54
   6  -4 -10    6.50    0.53
   6   4 -10    5.26    2.38
  -6   4  10    5.93    1.78
   6   4 -10    7.14    0.64
   6   4 -10    6.20    0.59
   5  -4 -10   17.12    3.80
  -5  -4  10   12.60    3.37
   5  -4 -10   13.04    0.77
   5   4 -10   14.07    0.89
   5   4 -10    6.39    2.51
  -5   4  10   12.45    2.15
   5   4 -10   13.99    0.89
  -4  -4  10    7.67    2.63
   4  -4 -10    6.37    0.49
   4  -4 -10    8.20    2.20
  -4   4  10    6.78    0.47
   4   4 -10    6.00    0.53
   4   4 -10    5.02    2.11
  -4   4  10    6.69    1.59
   4   4 -10    6.32    0.54
   3  -4 -10   21.35    2.71
   3  -4 -10   17.22    2.08
  -3  -4  10   17.18    3.03
   3  -4 -10   20.43    1.00
  -3   4  10   19.98    0.90
   3   4 -10   21.24    1.05
   3   4 -10   20.26    1.06
   3   4 -10   22.43    3.83
   2  -4 -10   13.12    1.94
  -2  -4  10   16.41    3.70
   2  -4 -10   12.94    0.76
   2  -4 -10   15.29    2.32
  -2   4  10   13.16    0.63
   2   4 -10   13.12    0.76
  -2   4  10   13.42    0.74
   2   4 -10   14.53    3.77
   2   4 -10   12.77    0.77
   1  -4 -10   29.19    3.05
   1  -4 -10   26.12    3.06
   1  -4 -10   26.30    1.26
  -1   4  10   26.79    1.05
   1   4 -10   23.84    1.18
  -1   4  10   26.65    1.20
   1   4 -10   25.23    3.95
   1   4 -10   25.07    1.18
   0  -4  10    0.36    0.12
   0  -4 -10    0.08    0.64
   0  -4 -10    0.10    0.13
   0   4 -10    1.43    1.04
   0   4 -10    0.33    0.78
   0   4  10    0.67    0.17
   0   4 -10    0.27    0.11
   0   4  10    0.28    0.61
   0   4 -10    0.52    0.18
   1  -4  10   29.60    1.27
  -1  -4 -10   31.96    4.29
   1   4  10   39.78    4.37
  -1   4 -10   31.40    4.19
  -1   4 -10   31.06    4.37
  -1   4 -10   26.08    1.33
  -1   4 -10   28.98    1.30
   2  -4  10   15.21    0.81
  -2  -4 -10   11.01    2.92
   2  -4  10   15.41    3.45
  -2   4 -10   12.74    3.35
  -2   4 -10   15.09    0.83
   2   4  10   19.77    4.15
  -2   4 -10   14.51    0.93
  -3  -4 -10   15.95    5.74
   3  -4  10   20.47    1.19
   3  -4  10   19.56    3.21
  -3   4 -10   21.48    1.07
  -3   4 -10   23.40    4.02
   3   4  10   19.76    5.77
  -4  -4 -10    9.45    3.06
   4  -4  10    6.88    2.18
  -4   4 -10    8.15    3.04
   4   4  10    4.90    2.25
   5  -4  10   17.65    4.09
  -5  -4 -10   12.75    4.26
   5   4  10   18.65    1.25
  -5   4 -10   20.88    5.16
   5   4  10   22.19    5.37
  -6  -4 -10    0.60    2.51
   6  -4  10    4.40    0.56
   6  -4  10    3.35    1.93
   6   4  10    5.54    0.69
   6   4  10    4.83    2.15
  -6   4 -10    4.33    2.69
   7  -4  10    4.88    0.76
   7  -4  10    2.79    2.41
  -7  -4 -10    2.31    3.10
   7   4  10    6.41    3.23
   7   4  10    6.61    0.77
  -7   4 -10   -1.50    2.48
   8  -4  10   11.84    1.03
   8  -4  10   14.88    4.66
  -8  -4 -10   25.17    7.64
   8   4  10   15.16    4.77
  -8   4 -10    6.21    3.77
   8   4  10   13.43    1.19
   9  -4  10   16.45    1.24
  -9  -4 -10   10.38    4.96
   9  -4  10   10.60    5.53
   9   4  10   15.02    1.48
  -9   4 -10   14.07    6.53
  -9  -5  10    0.32    2.98
   9  -5 -10    0.06    4.07
   9  -5 -10    2.07    0.39
   9   5 -10   -5.94    3.90
  -9   5  10    8.30    3.54
   9   5 -10    1.50    0.39
   9   5 -10    2.15    0.44
   8  -5 -10   15.28    1.03
   8  -5 -10   19.87    5.31
  -8  -5  10   14.25    4.44
   8   5 -10   15.21    1.09
   8   5 -10   16.61    1.16
  -8   5  10   19.77    3.30
   8   5 -10    7.62    4.01
   7  -5 -10   33.81    1.55
  -7  -5  10   40.73    6.01
   7  -5 -10   32.08    5.26
   7   5 -10   32.91    1.74
  -7   5  10   32.74    4.02
   7   5 -10   34.67    1.78
   7   5 -10   22.91    6.90
   6  -5 -10    2.37    2.09
   6  -5 -10    5.62    0.47
  -6  -5  10    3.55    2.01
   6   5 -10    4.81    0.54
  -6   5  10    5.16    1.79
   6   5 -10    2.96    2.49
   6   5 -10    5.35    0.59
   5  -5 -10   11.81    0.73
   5  -5 -10   13.81    3.15
  -5  -5  10   13.50    3.52
   5   5 -10   14.15    4.09
  -5   5  10   11.42    0.87
   5   5 -10   13.20    0.87
  -5   5  10   14.36    2.04
   5   5 -10   11.06    0.83
   4  -5 -10   14.92    2.36
  -4  -5  10   13.98    3.35
   4  -5 -10   16.84    0.93
   4   5 -10   16.70    4.25
   4   5 -10   17.54    1.00
   4   5 -10   18.06    1.04
   3  -5 -10   45.66    1.83
   3  -5 -10   41.35    3.06
   3  -5 -10   51.16    3.96
  -3  -5  10   49.58    5.50
   3   5 -10   41.09    5.40
  -3   5  10   46.96    1.68
   3   5 -10   43.47    1.88
   3   5 -10   43.52    1.93
  -3   5  10   45.52    1.86
   2  -5 -10  158.03    7.52
   2  -5 -10  164.47    7.86
  -2  -5  10  165.11   10.42
   2  -5 -10  167.48    5.54
   2   5 -10  158.97    5.50
  -2   5  10  160.64    5.26
   2   5 -10  150.79   10.56
  -2   5  10  164.86    5.46
   2   5 -10  159.05    5.57
   1  -5 -10   37.01    3.05
  -1  -5  10   37.79    4.37
   1  -5 -10   38.11    1.66
   1  -5 -10   34.79    3.96
   1   5 -10   36.78    1.60
  -1   5  10   36.77    1.37
  -1   5  10   37.67    1.56
   1   5 -10   35.36    1.54
   1   5 -10   38.73    4.56
   0  -5  10  106.38    3.77
   0  -5 -10  102.45    3.99
   0  -5 -10  107.59    8.53
   0   5 -10  125.77    9.21
   0   5 -10  117.08    8.81
   0   5  10  107.65    3.87
   0   5 -10  102.00    3.79
   0   5 -10  103.53    3.84
   0   5  10  122.94    8.30
  -1  -5 -10   28.03    4.63
   1  -5  10   35.11    1.39
  -1   5 -10   34.30    1.49
  -1   5 -10   32.14    1.43
  -1   5 -10   32.60    4.07
   1   5  10   25.84    4.04
  -1   5 -10   30.06    4.17
   2  -5  10  162.93    5.29
  -2  -5 -10  136.68   10.12
  -2   5 -10  161.71    5.54
   2   5  10  142.37    9.59
  -2   5 -10  162.54    5.39
  -2   5 -10  158.21   10.01
  -2   5 -10  153.82   10.59
  -3  -5 -10   30.76    4.93
   3  -5  10   40.35    1.63
   3  -5  10   39.92    4.72
  -3   5 -10   39.70    5.27
  -3   5 -10   38.01    1.68
   3   5  10   41.26    5.10
  -4  -5 -10   13.91    4.49
   4  -5  10   12.75    3.18
   4   5  10   11.62    3.54
  -4   5 -10    9.57    2.97
   4   5  10   13.21    0.98
   5  -5  10   11.98    3.16
  -5  -5 -10   16.07    5.14
  -5   5 -10   15.79    4.65
   5   5  10   10.41    0.92
   5   5  10   12.63    3.86
  -6  -5 -10    6.29    3.44
   6  -5  10    5.51    2.61
   6  -5  10    4.27    0.53
  -6   5 -10    2.67    2.61
   6   5  10    0.97    1.76
  -7  -5 -10   20.08    5.90
   7  -5  10   29.07    1.63
   7  -5  10   23.69    5.29
  -7   5 -10   21.61    6.28
   7   5  10   36.36    6.18
   7   5  10   27.38    1.78
   8  -5  10   12.92    1.02
  -8  -5 -10    7.29    4.70
   8  -5  10    6.29    4.05
   8   5  10   14.03    1.27
  -8   5 -10    6.53    6.27
  -9  -5 -10   -1.62    3.24
   9   5  10   -3.21    2.76
  -8  -6  10    9.92    4.15
   8  -6 -10    8.31    3.29
   8  -6 -10   11.04    0.75
  -8   6  10   11.68    2.49
   8   6 -10    9.56    5.14
   8   6 -10   11.15    0.94
   8   6 -10    9.16    0.85
   7  -6 -10   13.72    0.85
  -7  -6  10   10.15    4.31
   7  -6 -10   15.86    3.61
   7   6 -10   15.31    1.06
   7   6 -10   10.24    4.51
   7   6 -10   14.67    1.06
  -7   6  10   16.00    3.10
  -6  -6  10    3.01    2.09
   6  -6 -10    1.59    0.28
  -6   6  10   -0.19    0.94
   6   6 -10    1.48    0.33
   6   6 -10    0.23    2.08
   6   6 -10    1.05    0.30
   5  -6 -10   -0.11    0.75
   5  -6 -10   -0.08    0.09
  -5  -6  10   -0.97    0.70
   5   6 -10    0.31    1.44
   5   6 -10    0.16    0.13
  -5   6  10    0.14    0.10
   4  -6 -10   50.68    2.03
   4  -6 -10   47.23    3.03
   4  -6 -10   47.60    3.86
  -4  -6  10   43.90    5.65
   4   6 -10   48.94    6.63
   4   6 -10   50.70    2.19
  -4   6  10   50.50    1.85
   4   6 -10   48.37    2.09
   3  -6 -10   88.02    3.20
   3  -6 -10   88.28    4.84
  -3  -6  10   80.80    7.45
   3  -6 -10   84.42    4.30
   3   6 -10   87.98    3.26
  -3   6  10   90.33    3.17
   3   6 -10   88.65    8.32
   3   6 -10   87.57    3.36
   2  -6 -10    0.59    0.17
  -2  -6  10    0.58    0.77
   2  -6 -10    0.22    0.53
   2  -6 -10    0.79    0.53
   2   6 -10    0.59    0.18
   2   6 -10    0.70    0.19
   2   6 -10   -0.31    0.73
  -2   6  10    0.35    0.13
  -1  -6  10   63.33    6.13
   1  -6 -10   65.00    4.01
   1  -6 -10   61.00    4.44
   1  -6 -10   64.00    2.58
  -1   6  10   68.02    2.48
   1   6 -10   64.80    6.30
   1   6 -10   65.95    2.56
   0  -6 -10    0.17    0.56
   0  -6  10   -0.09    0.07
   0   6 -10   -0.05    0.67
   0   6 -10    0.02    0.59
   0   6 -10    0.05    0.10
   0   6  10    0.00    0.07
   0   6  10    0.14    0.53
   0   6 -10    0.18    0.08
   1  -6  10   67.72    2.41
  -1  -6 -10   65.98    5.97
  -1   6 -10   65.30    2.53
  -1   6 -10   67.75    2.55
   1   6  10   61.72    5.20
  -1   6 -10   60.48    6.02
  -1   6 -10   59.24    5.72
   2  -6  10    0.15    0.10
  -2  -6 -10   -0.55    0.91
  -2   6 -10    0.10    0.09
  -2   6 -10    0.31    0.13
  -2   6 -10   -0.43    0.47
   2   6  10   -0.03    0.54
  -2   6 -10    1.15    0.79
   3  -6  10   83.89    2.94
  -3  -6 -10   67.95    7.51
   3   6  10   80.79    7.41
  -3   6 -10   78.69    7.81
  -3   6 -10   82.61    3.07
   4  -6  10   48.18    5.48
  -4  -6 -10   43.24    6.10
   4   6  10   39.88    2.00
  -4   6 -10   37.96    5.82
   4   6  10   40.00    5.71
  -4   6 -10   38.67    1.80
  -5  -6 -10   -1.25    0.92
   5  -6  10    0.17    1.06
   5  -6  10    0.12    0.14
   5   6  10    0.34    0.22
  -5   6 -10    1.57    1.54
   5   6  10    1.16    1.82
   6  -6  10    0.18    1.07
  -6  -6 -10    2.82    2.33
   6  -6  10    0.57    0.22
   6   6  10    0.66    0.29
   6   6  10   -0.83    1.45
  -6   6 -10    0.20    1.75
  -7  -6 -10   11.32    4.28
   7  -6  10    7.14    3.55
   7  -6  10   12.90    0.97
   7   6  10   11.02    1.06
  -7   6 -10   14.42    5.20
   8  -6  10   12.76    1.26
   8  -6  10    6.59    3.89
  -8  -6 -10   11.74    5.25
   8   6  10   14.33    4.88
  -8   6 -10   10.19    4.58
   8   6  10   14.84    1.27
   8  -7 -10    7.36    0.61
   8   7 -10    8.44    0.82
   8   7 -10    4.21    4.51
  -8   7  10    7.15    1.87
   8   7 -10    9.31    0.86
   7  -7 -10    1.28    1.32
  -7  -7  10   -0.05    2.16
   7  -7 -10    1.29    0.26
   7   7 -10    1.71    3.32
  -7   7  10    0.37    0.88
   7   7 -10    1.22    0.30
   7   7 -10    0.87    0.34
  -6  -7  10   -1.83    1.40
   6  -7 -10    1.17    1.16
   6  -7 -10    0.83    0.21
   6   7 -10    0.62    0.24
   6   7 -10    3.70    2.39
   6   7 -10    0.30    0.18
   5  -7 -10    7.20    0.54
   5  -7 -10    7.35    1.20
  -5  -7  10    9.71    3.12
   5  -7 -10    5.71    0.90
   5   7 -10    6.58    0.66
   5   7 -10    6.88    3.23
   5   7 -10    7.53    0.66
  -5   7  10    7.91    0.51
   4  -7 -10    5.75    0.46
  -4  -7  10    4.51    2.22
   4   7 -10    5.35    0.51
   4   7 -10    4.77    0.55
   4   7 -10    4.70    2.41
   3  -7 -10   19.12    0.98
  -3  -7  10   13.79    3.35
   3   7 -10   17.58    1.00
  -3   7  10   19.84    0.95
   3   7 -10   17.08    1.07
   3   7 -10   18.71    4.62
   2  -7 -10   47.29    2.00
  -2  -7  10   49.87    5.68
   2   7 -10   48.31    2.08
   2   7 -10   41.29    5.42
  -2   7  10   48.59    1.88
   2   7 -10   48.09    1.96
   1  -7 -10    5.65    1.13
   1  -7 -10    5.17    1.40
   1  -7 -10    4.98    0.50
  -1   7  10    6.33    0.47
   1   7 -10    5.40    0.44
   1   7 -10    3.16    1.57
   1   7 -10    5.39    0.50
   0  -7 -10   22.26    3.03
   0   7 -10   21.46    1.04
   0   7 -10   17.00    4.68
   0   7 -10   20.35    1.09
   0   7  10   20.59    2.30
   0   7 -10   16.38    3.55
   1  -7  10    6.96    0.49
  -1  -7 -10    8.20    2.59
  -1   7 -10    6.38    0.54
  -1   7 -10    7.48    2.20
   1   7  10    8.59    2.14
  -1   7 -10    7.61    0.57
  -1   7 -10    6.30    2.12
   2  -7  10   47.90    1.80
  -2  -7 -10   43.54    5.31
  -2   7 -10   46.55    5.66
  -2   7 -10   46.70    1.95
  -2   7 -10   47.13    2.02
   2   7  10   37.28    4.59
  -2   7 -10   45.90    5.13
  -3  -7 -10   18.76    4.52
   3  -7  10   16.32    0.81
   3   7  10   14.78    3.63
  -3   7 -10   16.48    0.95
   3   7  10   15.36    1.02
  -3   7 -10   15.39    3.75
  -3   7 -10   12.27    2.92
   4  -7  10    4.20    0.50
  -4  -7 -10    5.11    2.43
  -4   7 -10    3.87    0.44
   4   7  10    4.87    2.46
  -4   7 -10    4.75    2.34
   4   7  10    4.63    0.57
  -5  -7 -10    4.39    2.82
   5  -7  10    9.13    2.82
   5  -7  10    7.63    0.69
   5   7  10    7.30    0.78
  -5   7 -10    3.24    2.42
   5   7  10    7.00    2.90
  -6  -7 -10    3.24    2.41
   6  -7  10    1.09    1.82
   6  -7  10    1.18    0.35
  -6   7 -10    0.22    1.86
   6   7  10    1.45    0.45
  -7  -7 -10   -0.68    2.53
   7  -7  10    0.61    0.25
   7  -7  10    1.08    1.64
  -7   7 -10    2.75    3.19
   7   7  10    0.24    2.48
   7   7  10    0.73    0.36
   8  -7  10   11.68    0.92
   8  -7  10    7.96    3.61
  -8   7 -10   12.68    5.00
   8   7  10   11.40    1.19
   8  -8 -10    9.34    1.98
   8  -8 -10    4.46    0.51
  -8  -8  10    1.23    3.13
   8   8 -10   20.81    6.24
   8   8 -10    6.18    0.73
   8   8 -10    5.76    0.67
  -8   8  10    5.51    1.56
   7  -8 -10    0.60    0.22
  -7  -8  10    2.16    2.43
   7   8 -10    0.56    2.94
   7   8 -10    0.70    0.28
   7   8 -10    0.83    0.26
  -6  -8  10    0.27    1.66
   6  -8 -10    1.27    0.26
   6   8 -10    0.90    0.30
   6   8 -10    0.55    0.22
   6   8 -10    1.30    2.54
  -5  -8  10    3.05    2.20
   5   8 -10    2.76    0.47
   5   8 -10    3.24    0.53
   5   8 -10    3.86    2.67
   4  -8 -10   16.80    0.90
  -4  -8  10   16.92    4.27
   4   8 -10   12.49    3.73
   4   8 -10   16.32    1.00
  -4   8  10   16.09    0.86
  -3  -8  10   15.48    3.96
   3  -8 -10   15.16    0.89
   3   8 -10   16.97    0.95
   3   8 -10   13.41    0.96
   3   8 -10   16.60    4.05
  -3   8  10   16.28    0.83
   2  -8 -10    1.51    0.31
   2   8 -10    0.96    0.26
   2   8 -10   -0.98    1.05
   2   8 -10    0.67    0.20
  -2   8  10    1.36    0.23
   1   8 -10   81.60    7.77
  -1   8  10   92.14    3.19
   1   8 -10   84.70    3.34
   1   8 -10   86.87    3.20
   0  -8 -10   -0.83    0.65
   0   8 -10    0.31    0.14
   0   8  10    0.66    0.46
   0   8 -10   -0.86    0.73
   0   8 -10    0.68    0.95
  -1  -8 -10   72.41    6.36
   1  -8  10   78.11    2.77
  -1   8 -10   70.37    6.76
   1   8  10   73.51    5.78
  -1   8 -10   71.13    6.97
  -1   8 -10   79.05    2.91
  -1   8 -10   77.67    2.96
   2  -8  10    2.87    0.29
  -2   8 -10    2.49    1.28
  -2   8 -10    1.98    0.34
  -2   8 -10    1.30    1.33
  -2   8 -10    2.34    0.39
  -3  -8 -10   10.88    3.50
   3  -8  10   12.54    0.67
   3   8  10   13.77    0.96
  -3   8 -10   13.21    0.84
  -3   8 -10   10.85    3.52
   3   8  10    9.90    3.13
  -3   8 -10    9.26    2.71
   4  -8  10   23.97    1.06
  -4  -8 -10   21.41    5.56
  -4   8 -10   16.53    3.63
   4   8  10   24.72    1.46
  -4   8 -10   28.29    5.94
  -4   8 -10   22.17    1.23
   5  -8  10    1.49    0.34
  -5  -8 -10    2.34    2.49
   5   8  10    0.93    0.33
  -5   8 -10    4.10    2.32
  -6  -8 -10    4.68    2.95
   6   8  10    1.21    2.21
  -6   8 -10    0.69    2.34
   7  -8  10   -0.34    2.02
   7  -8  10    0.81    0.27
  -7   8 -10   -0.10    2.01
   7   8  10   -0.12    0.18
   8  -8  10    4.64    0.64
   8   8  10    6.58    1.02
   7  -9 -10   13.62    0.81
   7   9 -10   12.61    1.10
   7   9 -10   14.28    1.06
   6  -9 -10    0.11    0.17
  -6  -9  10    0.86    1.98
   6   9 -10    0.36    0.16
   6   9 -10    0.27    0.18
   6   9 -10   -1.51    2.20
  -5  -9  10   34.98    5.99
   5  -9 -10   46.13    1.87
   5   9 -10   47.89    2.28
   5   9 -10   44.32    2.08
   5   9 -10   44.43    7.30
  -4  -9  10    1.32    1.68
   4  -9 -10    2.48    0.37
   4   9 -10    0.99    2.07
   4   9 -10    2.36    0.48
  -4   9  10    2.62    0.30
   4   9 -10    2.63    0.43
  -3  -9  10   17.17    3.94
   3  -9 -10   18.34    1.01
   3   9 -10   19.86    1.08
   3   9 -10   19.93    1.29
  -3   9  10   19.16    0.92
   3   9 -10   11.53    3.61
  -2  -9  10   24.14    4.13
  -2   9  10   24.61    1.12
   2   9 -10   24.92    5.16
   2   9 -10   25.94    1.40
   2   9 -10   25.02    1.23
   1   9 -10    0.31    0.14
   1   9 -10    0.44    0.16
   1   9 -10   -0.04    1.02
  -1   9  10    0.41    0.14
   0  -9 -10  156.73    7.97
   0   9 -10  149.03    5.37
   0   9 -10  150.95   11.03
   0   9  10  163.86    7.43
   0   9 -10  141.33   10.41
   0   9 -10  160.06    5.51
   1  -9  10    0.31    0.14
  -1  -9 -10    0.18    0.97
   1   9  10    1.23    0.94
  -1   9 -10   -0.03    0.11
  -1   9 -10    0.58    1.07
  -1   9 -10    0.00    0.89
  -1   9 -10    0.20    0.11
   2  -9  10   29.08    1.22
  -2  -9 -10   28.59    4.30
  -2   9 -10   30.13    1.45
   2   9  10   28.95    1.47
  -2   9 -10   22.97    4.92
  -2   9 -10   24.44    3.93
  -2   9 -10   27.27    1.39
   3  -9  10   19.62    0.89
  -3  -9 -10   13.08    3.67
  -3   9 -10   21.87    5.26
  -3   9 -10   19.16    1.10
   3   9  10   18.00    1.19
  -4  -9 -10    3.43    2.26
  -4   9 -10    1.08    1.64
   4   9  10    3.10    0.54
  -4   9 -10   -1.54    1.51
   4   9  10    1.62    1.73
  -5  -9 -10   32.10    6.77
   5  -9  10   39.71    1.83
   5  -9  10   40.37    1.66
  -5   9 -10   38.56    6.40
   5   9  10   38.97    2.15
   5   9  10   42.48    6.79
  -5   9 -10   39.16    5.14
  -5   9 -10   39.75    1.91
   6  -9  10   -0.12    0.19
   6   9  10   -0.20    0.17
  -6   9 -10   -3.40    2.12
   7  -9  10   10.33    3.74
   7  -9  10   12.42    0.83
  -7   9 -10   12.49    4.13
   7   9  10    9.31    1.05
  -7 -10  10    0.76    3.30
   7  10 -10   -6.19    4.22
   7  10 -10    0.96    0.32
   7  10 -10    1.72    0.50
  -6 -10  10   36.44    7.63
   6  10 -10   18.61    6.07
   6  10 -10   30.74    1.67
   6  10 -10   31.39    1.81
  -5 -10  10   13.16    3.88
   5  10 -10    9.36    0.77
   5  10 -10    9.64    0.88
  -4 -10  10   64.93    7.74
   4  10 -10   63.06    2.67
   4  10 -10   57.49    7.91
  -4  10  10   69.58    2.49
   4  10 -10   64.70    2.89
  -3 -10  10    0.84    1.81
   3  10 -10    0.51    1.86
   3  10 -10    0.92    0.24
   3  10 -10    1.45    0.33
  -3  10  10    0.82    0.19
  -2 -10  10    5.66    2.25
   2  10 -10    8.95    0.64
   2  10 -10    9.13    1.08
  -2  10  10    8.67    0.54
   2  10 -10    4.71    2.37
   1  10 -10    1.54    1.63
   1  10 -10    1.19    0.25
   1  10 -10    2.22    0.42
  -1  10  10    1.88    0.29
   0 -10 -10   -0.17    0.61
   0  10 -10    1.14    1.04
   0  10 -10    0.95    1.30
   1 -10  10    2.18    0.31
  -1 -10 -10    2.03    1.30
   1  10  10    2.64    0.40
   1  10  10    1.13    1.07
  -1  10 -10    2.87    0.34
  -1  10 -10    1.95    0.37
  -1  10 -10    1.67    1.34
  -1  10 -10   -0.56    1.47
  -2 -10 -10    4.74    2.36
   2 -10  10    6.76    0.47
   2  10  10    8.39    0.69
  -2  10 -10    5.51    0.54
  -2  10 -10    7.05    2.34
  -2  10 -10    6.01    0.54
  -3 -10 -10    4.20    2.42
   3  10  10    1.82    0.40
  -3  10 -10    0.51    1.67
  -3  10 -10    1.69    0.33
  -3  10 -10    1.07    1.54
   4 -10  10   62.97    2.50
  -4 -10 -10   60.05    8.16
   4  10  10   61.51    7.58
  -4  10 -10   59.32    7.84
  -4  10 -10   64.60    6.78
   4  10  10   59.24    2.83
   5 -10  10    5.23    0.50
  -5  10 -10    4.61    0.54
   5  10  10    4.88    0.75
  -5  10 -10   -0.38    2.46
   6 -10  10   34.03    1.75
  -6  10 -10   47.23    7.71
   6  10  10   34.68    2.10
   7  10  10    7.89    1.71
   6  11 -10    0.41    0.20
   6  11 -10    0.02    0.21
   5  11 -10    5.77    3.37
   5  11 -10    1.72    0.35
   5  11 -10    2.28    0.48
   4  11 -10    8.42    3.62
   4  11 -10   17.90    1.08
   4  11 -10   20.50    1.31
  -3 -11  10    9.89    3.36
   3  11 -10    9.20    0.70
   3  11 -10    9.70    0.84
   3  11 -10   13.53    4.42
  -2  11  10    3.76    0.33
   2  11 -10    3.00    0.36
   2  11 -10    3.08    0.53
   1  11 -10   -0.15    0.10
   1  11 -10    0.09    0.12
  -1  11  10    0.15    0.12
   0  11  10   18.54    0.97
   0  11 -10   15.81    1.13
   0  11 -10   18.87    0.99
   0  11 -10   12.16    4.70
   0  11 -10   15.81    4.02
  -1 -11 -10    1.46    1.01
   1 -11  10    0.27    0.17
   1  11  10   -0.44    0.72
  -1  11 -10    1.39    1.41
  -1  11 -10    0.21    0.15
   1  11  10    0.46    0.18
  -1  11 -10   -1.54    0.84
  -1  11 -10    0.45    0.17
  -2 -11 -10    0.09    1.49
  -2  11 -10    2.61    0.44
  -2  11 -10    1.89    1.60
   2  11  10    1.02    1.42
  -2  11 -10    3.47    2.17
   2  11  10    3.24    0.51
   3  11  10   12.08    0.97
  -3  11 -10    5.58    2.74
  -3  11 -10   12.38    1.05
  -3  11 -10    9.71    3.26
   4 -11  10   15.33    0.92
  -4  11 -10   11.23    3.85
   4  11  10   14.09    1.30
  -4  11 -10   15.48    1.03
  -5  11 -10    3.02    0.52
  -5  11 -10    1.97    3.00
   5  11  10    1.72    0.47
  -6  11 -10    6.37    3.61
   5  12 -10    1.01    0.38
   5  12 -10    0.62    0.23
   4  12 -10   37.03    1.79
   4  12 -10   37.22    2.01
  -3 -12  10    1.18    2.93
   3  12 -10    5.39    4.41
  -2 -12  10   44.16    6.20
   2  12 -10   45.55    2.18
   2  12 -10   39.15    6.46
   2  12 -10   43.82    1.90
   1  12 -10    2.15    0.32
   1  12 -10    2.66    2.23
   1  12 -10    2.21    0.43
   1  12 -10    2.00    1.36
   0  12 -10    0.33    0.14
   0  12 -10    0.22    0.15
   0  12  10    0.13    0.16
   0  12 -10   -1.71    0.93
  -1 -12 -10    2.25    1.15
  -1  12 -10    0.85    1.77
  -1  12 -10    1.54    0.27
   1  12  10   -0.34    0.91
  -1  12 -10    0.76    0.25
   1  12  10    2.23    0.38
  -2  12 -10   33.12    5.76
  -2  12 -10   43.09    2.03
   2  12  10   44.95    2.09
  -3  12 -10    0.27    0.15
   3  12  10    0.21    0.22
  -4  12 -10   42.75    2.01
  -4  12 -10   41.46    8.30
   4  12  10   37.56    2.12
  -5  12 -10    2.10    2.96
   5  12  10    1.93    0.49
  -5  12 -10    2.03    0.40
   4  13 -10    2.69    0.45
   3  13 -10   11.88    0.99
   3  13 -10   10.96    0.85
   2  13 -10    6.51    0.56
   2  13 -10    7.49    0.74
   1  13 -10   16.15    0.93
   1  13 -10   12.57    3.50
   1  13 -10   16.28    1.14
   0  13  10    0.16    0.17
   0  13 -10    0.16    0.15
   0  13 -10   -0.94    1.08
  -1  13 -10   11.88    3.78
  -1  13 -10   14.48    1.02
   1  13  10   14.63    0.98
   2  13  10    6.27    0.67
  -2  13 -10    3.48    2.66
  -2  13 -10    6.13    0.65
  -3  13 -10    7.84    3.33
  -3  13 -10   10.96    0.87
   3  13  10   12.01    1.00
  -4  13 -10   -2.27    2.64
   2  14 -10    3.33    0.58
   2  14 -10    1.70    0.35
   1  14 -10    5.04    0.47
   1  14 -10    3.87    0.63
   1  14 -10    1.50    2.04
   0  14 -10    2.21    2.39
  -1  14 -10    5.97    3.15
   1  14  10    5.11    0.59
  -1  14 -10    4.47    0.55
  -2  14 -10    8.45    3.85
   2  14  10    4.64    0.67
  -2  14 -10    5.97    0.62
   9   0 -11   24.38    1.42
  -9   0  11   17.14    4.62
   9   0 -11   24.00    1.20
  -8   0  11    2.89    2.06
   7   0 -11   29.35    1.50
  -7   0  11   23.65    4.05
   7   0 -11   28.61    1.30
   6   0 -11    0.32    0.14
  -6   0  11    1.28    0.88
   6   0 -11    0.13    0.08
  -5   0  11    2.92    1.28
   5   0 -11    4.02    0.42
  -4   0  11    0.55    0.59
  -3   0  11   16.21    2.61
   3   0 -11   18.02    0.94
   3   0 -11   17.30    0.82
   2   0 -11    0.57    0.74
   1   0 -11   11.11    2.53
   1   0 -11   13.89    0.69
   1   0 -11   13.04    0.78
  -1   0  11   14.58    0.76
   1   0 -11   16.30    2.72
   0   0 -11   -0.35    0.47
   0   0  11    0.10    0.06
   0   0 -11    0.16    0.08
   0   0 -11    0.10    0.07
   0   0 -11   -0.58    0.36
   1   0  11   24.52    3.67
  -1   0 -11   16.60    1.02
   1   0  11   16.88    1.26
  -1   0 -11   21.57    3.53
  -2   0 -11    0.39    0.92
   2   0  11    0.16    0.86
  -2   0 -11   -0.10    0.09
  -3   0 -11   41.71    5.52
   3   0  11   40.07    4.93
  -4   0 -11    0.82    0.85
   4   0  11   -0.25    0.95
   5   0  11   25.24    5.31
  -5   0 -11   16.78    4.45
   6   0  11   -0.06    0.14
   6   0  11   -0.75    1.27
  -6   0 -11   -0.45    1.75
  -7   0 -11   10.87    4.43
   7   0  11    9.42    3.20
   7   0  11   11.98    1.09
   8   0  11   -0.19    0.18
  -9   0 -11   10.52    5.91
   9   0  11   -1.65    3.39
   9  -1 -11    2.62    3.71
   9  -1 -11    0.89    0.26
   9  -1 -11    1.16    0.24
  -9  -1  11    4.92    2.81
  -9   1  11    2.86    2.70
   9   1 -11    2.41    3.61
   9   1 -11    1.53    0.35
   8  -1 -11    8.21    3.87
   8  -1 -11    7.94    0.54
   8  -1 -11    8.03    0.69
  -8  -1  11    9.40    3.09
  -8   1  11    6.57    2.54
   8   1 -11    6.44    3.88
   8   1 -11    8.37    0.75
   8   1 -11    7.85    0.62
   7  -1 -11   18.27    5.17
   7  -1 -11   15.78    0.81
  -7  -1  11   21.33    4.71
   7   1 -11   16.02    0.92
  -7   1  11   15.63    3.95
   7   1 -11   18.13    5.07
   7   1 -11   15.57    1.03
   6  -1 -11    1.68    0.32
   6  -1 -11    1.89    1.85
   6  -1 -11    1.57    0.24
  -6  -1  11    0.56    1.21
   6   1 -11    1.09    1.34
   6   1 -11    2.12    0.32
  -6   1  11    2.21    1.41
   6   1 -11    1.35    0.26
   5  -1 -11   28.87    1.38
  -5  -1  11   29.61    4.22
   5  -1 -11   28.25    1.18
   5  -1 -11   29.51    4.54
   5   1 -11   29.42    1.31
   5   1 -11   28.27    1.40
   5   1 -11   27.57    4.61
  -5   1  11   29.69    3.85
   4  -1 -11    1.77    1.28
   4  -1 -11    3.39    0.36
  -4  -1  11    3.87    1.60
   4  -1 -11    2.69    0.24
  -4   1  11    3.60    1.45
   4   1 -11    3.05    0.35
   4   1 -11    3.09    0.31
   4   1 -11    4.17    1.79
   3  -1 -11   28.60    1.13
   3  -1 -11   24.64    3.53
   3  -1 -11   29.03    1.31
  -3  -1  11   25.64    3.46
  -3   1  11   27.21    3.26
   3   1 -11   29.36    3.95
   3   1 -11   29.09    1.24
   3   1 -11   29.42    1.33
   2  -1 -11    0.20    0.07
  -2  -1  11   -0.54    0.31
   2   1 -11    0.24    0.94
   2   1 -11    0.33    0.10
   2   1 -11    0.05    0.07
  -2   1  11    0.22    0.09
   1  -1 -11    8.93    0.61
   1  -1 -11    8.57    2.20
   1  -1 -11    9.03    0.48
  -1   1  11    8.65    0.54
   1   1 -11    8.08    0.51
   1   1 -11    8.21    0.58
   1   1 -11    7.68    2.20
   1   1 -11    6.34    1.85
   0  -1 -11   -0.45    0.44
   0  -1 -11    0.55    0.80
   0  -1  11    0.12    0.08
   0  -1 -11    0.14    0.11
   0   1 -11    0.02    0.46
   0   1 -11    0.00    0.04
   0   1 -11   -0.01    0.51
   0   1  11    0.04    0.05
   0   1 -11    0.07    0.06
  -1  -1 -11    8.39    2.43
  -1  -1 -11    6.20    0.57
   1  -1  11    6.98    2.24
  -1   1 -11    7.27    0.60
  -1   1 -11    6.53    0.46
  -1   1 -11    6.58    2.22
   1   1  11    7.87    2.24
   1   1  11    6.30    0.46
   2  -1  11    1.88    1.43
  -2  -1 -11    1.28    1.39
  -2  -1 -11    1.40    0.34
  -2   1 -11    1.03    1.09
   2   1  11    3.26    1.76
  -3  -1 -11   -0.11    0.75
   3  -1  11    0.48    1.03
   3   1  11    1.65    1.26
  -3   1 -11    2.26    1.25
  -4  -1 -11    6.08    2.82
   4  -1  11    5.11    2.29
   4   1  11    6.54    2.31
  -4   1 -11    5.77    2.64
  -5  -1 -11    2.20    1.71
   5  -1  11   -1.12    1.09
  -5   1 -11    1.44    1.62
   5   1  11   -1.24    1.17
  -6  -1 -11   12.08    4.36
   6  -1  11   12.87    1.07
   6  -1  11   14.91    4.31
  -6   1 -11   11.34    3.87
   6   1  11   11.83    3.90
   6   1  11   12.42    1.05
   7  -1  11   30.58    6.90
   7  -1  11   32.98    1.91
  -7  -1 -11   27.64    7.39
   7   1  11   22.73    6.00
   7   1  11   31.91    1.92
  -7   1 -11   22.43    6.12
   8  -1  11   -0.03    2.06
   8  -1  11    1.05    0.38
  -8  -1 -11    3.28    3.00
   8   1  11    0.76    0.33
  -8   1 -11   -4.97    2.33
   8   1  11    0.94    1.97
  -9  -1 -11   17.25    6.21
   9  -1  11   21.24    1.59
   9  -1  11   14.34    5.62
  -9   1 -11   26.57    8.53
   9   1  11   29.77    7.54
   9   1  11   23.14    1.69
   9  -2 -11   12.24    5.68
   9  -2 -11   11.31    0.87
  -9  -2  11   16.06    4.65
   9   2 -11   12.67    0.88
   9   2 -11    5.29    4.57
   9   2 -11   12.68    0.99
  -9   2  11    7.02    2.72
   8  -2 -11    1.41    4.40
   8  -2 -11    1.79    0.35
  -8  -2  11    2.85    2.47
   8   2 -11    0.18    3.40
  -8   2  11   -0.77    2.18
   8   2 -11    1.95    0.40
   8   2 -11    2.69    0.54
   7  -2 -11   12.68    4.48
  -7  -2  11   28.19    5.69
   7  -2 -11   24.87    1.27
   7   2 -11   15.28    4.65
   7   2 -11   23.32    1.23
   7   2 -11   23.44    1.34
  -7   2  11   20.30    4.33
  -6  -2  11   20.74    4.42
   6  -2 -11   21.75    0.91
   6  -2 -11   24.75    1.23
   6  -2 -11   16.76    4.43
   6   2 -11   18.96    4.76
   6   2 -11   23.32    1.19
  -6   2  11   21.78    3.51
   6   2 -11   23.22    1.27
   5  -2 -11    3.92    0.41
  -5  -2  11    4.04    1.79
   5  -2 -11    4.16    2.09
  -5   2  11    4.06    1.65
   5   2 -11    3.81    0.41
   5   2 -11    1.75    1.45
   5   2 -11    3.49    0.38
   4  -2 -11   21.55    4.21
   4  -2 -11   19.93    1.02
   4  -2 -11   19.79    0.79
  -4  -2  11   20.14    3.28
   4   2 -11   20.11    1.07
   4   2 -11   16.44    3.78
  -4   2  11   20.05    2.84
   4   2 -11   19.53    1.01
   3  -2 -11    3.82    0.38
   3  -2 -11    4.26    1.49
   3  -2 -11    4.12    0.26
  -3  -2  11    4.14    1.65
   3   2 -11    3.68    0.38
  -3   2  11    4.46    0.38
   3   2 -11    4.15    0.38
  -3   2  11    3.09    1.23
   3   2 -11    2.99    1.77
   2  -2 -11   21.48    1.21
  -2  -2  11   26.92    3.76
   2  -2 -11   25.69    3.16
   2  -2 -11   21.23    3.22
   2   2 -11   27.40    4.23
   2   2 -11   21.84    1.07
  -2   2  11   21.78    1.01
   2   2 -11   22.30    1.09
   1  -2 -11    0.49    0.73
   1  -2 -11    0.98    0.23
   1  -2 -11    0.15    0.58
   1   2 -11    2.39    1.32
   1   2 -11    1.04    0.22
  -1   2  11    1.07    0.20
   1   2 -11    1.08    1.26
   1   2 -11    1.16    0.22
   0  -2 -11    7.38    0.59
   0  -2 -11    6.61    2.01
   0   2 -11    4.96    1.77
   0   2 -11    4.64    1.81
   0   2  11    6.52    0.44
   0   2 -11    6.41    0.51
   0   2 -11    7.32    0.49
  -1  -2 -11    3.43    1.52
  -1  -2 -11    4.77    0.70
   1   2  11    4.02    0.35
  -1   2 -11    3.68    1.79
   1   2  11    4.30    1.70
  -1   2 -11    4.17    0.44
  -1   2 -11    4.37    0.44
   2  -2  11    7.73    2.41
  -2  -2 -11   13.50    3.65
  -2   2 -11   10.07    0.63
  -2   2 -11    7.07    2.72
  -2   2 -11    9.70    0.81
   2   2  11    9.07    2.65
   3  -2  11   13.17    3.05
  -3  -2 -11   15.77    3.81
  -3   2 -11   15.11    3.69
   3   2  11   16.98    3.57
   4  -2  11   -0.19    0.88
  -4  -2 -11    0.90    1.59
  -4   2 -11    0.12    1.06
   4   2  11    0.44    1.27
  -5  -2 -11    7.10    3.25
   5  -2  11    7.67    2.70
   5   2  11    6.71    0.72
   5   2  11    6.93    2.79
  -5   2 -11    5.05    2.93
  -6  -2 -11    5.75    3.22
   6  -2  11   10.76    0.96
   6  -2  11    7.40    3.47
   6   2  11   11.23    0.99
   6   2  11    9.77    3.92
  -6   2 -11   11.43    3.81
   7  -2  11    1.76    2.48
   7  -2  11    6.67    0.77
  -7  -2 -11    8.22    3.68
   7   2  11    6.81    3.74
   7   2  11    6.11    0.75
  -7   2 -11    1.27    3.64
   8  -2  11   24.44    5.90
  -8  -2 -11   17.54    5.85
   8  -2  11   22.48    1.57
   8   2  11   19.18    5.24
   8   2  11   25.23    1.71
  -8   2 -11   13.76    6.13
  -9  -2 -11    5.16    4.77
   9  -2  11    0.21    0.31
   9  -2  11   -2.75    4.00
   9   2  11    4.48    3.82
  -9   2 -11   -1.75    2.78
   9  -3 -11    6.86    4.64
  -9  -3  11    3.17    2.64
   9  -3 -11    1.90    0.38
  -9   3  11    1.20    1.90
   9   3 -11   14.23    5.72
   9   3 -11    2.83    0.49
   8  -3 -11   45.91    8.45
  -8  -3  11   40.42    6.86
   8  -3 -11   47.87    2.10
   8   3 -11   45.67    2.12
   8   3 -11   42.44    8.53
  -8   3  11   43.27    5.86
   8   3 -11   48.06    2.26
   7  -3 -11   -1.76    1.41
   7  -3 -11   -0.05    0.10
  -7  -3  11   -1.41    1.03
   7   3 -11    0.47    0.17
   7   3 -11   -1.57    2.00
   7   3 -11    0.38    0.18
   6  -3 -11   15.39    0.90
   6  -3 -11   19.71    4.51
  -6  -3  11   15.46    3.71
  -6   3  11   11.42    2.63
   6   3 -11   14.74    0.99
   6   3 -11   14.82    0.92
   6   3 -11   10.63    3.47
  -5  -3  11    3.76    1.90
   5  -3 -11    3.69    0.39
   5  -3 -11    3.84    1.83
   5   3 -11    3.86    0.42
   5   3 -11    3.10    0.46
  -5   3  11    5.14    1.65
   5   3 -11    2.87    2.05
   4  -3 -11    1.69    0.27
  -4  -3  11    1.87    1.41
   4  -3 -11    1.00    1.04
  -4   3  11    1.79    0.91
   4   3 -11    0.68    1.08
   4   3 -11    1.65    0.31
   3  -3 -11    5.11    0.43
  -3  -3  11    4.12    1.84
   3  -3 -11    4.33    1.59
   3   3 -11    4.51    0.43
   3   3 -11    1.80    1.33
   3   3 -11    5.18    0.44
  -3   3  11    4.39    0.37
   2  -3 -11   21.65    1.08
  -2  -3  11   19.91    3.01
   2   3 -11   21.70    1.07
   2   3 -11   22.14    1.07
   2   3 -11   18.00    3.02
   1  -3 -11    3.86    0.39
   1  -3 -11    5.51    1.65
   1  -3 -11    2.37    1.14
  -1   3  11    3.49    0.31
   1   3 -11    4.10    0.76
   1   3 -11    6.29    2.22
   1   3 -11    3.69    0.35
   0  -3 -11   17.70    2.98
   0  -3 -11   20.65    1.13
   0   3  11   19.57    0.92
   0   3 -11   23.18    3.53
   0   3 -11   20.22    1.04
   0   3  11   24.46    3.27
   0   3 -11   19.61    0.98
   0   3 -11   24.52    3.72
  -1  -3 -11    1.91    1.47
  -1  -3 -11    1.91    0.39
  -1   3 -11    2.29    0.27
  -1   3 -11    3.53    0.39
   1   3  11    3.51    1.45
   1   3  11    2.53    0.26
  -1   3 -11    3.58    1.61
  -1   3 -11    2.51    1.41
   2  -3  11   17.19    3.53
  -2  -3 -11   16.48    3.77
  -2   3 -11   18.50    4.07
   2   3  11   19.38    3.19
  -2   3 -11   18.08    0.96
  -2   3 -11   19.84    1.15
  -3  -3 -11    1.66    1.64
   3  -3  11   -0.84    0.57
   3   3  11   -0.31    0.81
  -3   3 -11    1.10    0.89
  -4  -3 -11   19.28    4.55
   4  -3  11   39.06    5.09
   4   3  11   29.35    5.02
  -4   3 -11   30.34    5.01
  -5  -3 -11    1.34    1.18
   5  -3  11    2.60    1.47
  -5   3 -11    0.44    1.31
   5   3  11    1.14    0.35
   5   3  11    0.97    1.54
   6  -3  11   30.03    1.76
   6  -3  11   23.61    5.18
  -6  -3 -11   28.01    6.76
   6   3  11   31.63    2.00
   6   3  11   34.52    5.84
  -6   3 -11   37.61    7.80
  -7  -3 -11    3.96    3.46
   7  -3  11    4.20    0.73
   7  -3  11    2.90    2.49
   7   3  11    4.56    0.74
  -7   3 -11    2.14    2.36
   7   3  11    3.08    3.23
  -8  -3 -11    7.30    4.44
   8  -3  11    2.45    0.50
   8  -3  11    3.39    3.02
   8   3  11    2.60    3.34
   8   3  11    1.95    0.47
  -8   3 -11   -0.56    2.93
  -9  -3 -11   -4.67    4.18
   9  -3  11    1.03    3.89
   9  -3  11    0.93    0.38
   9   3  11    0.34    0.32
  -9   3 -11   -5.19    4.43
   9   3  11    4.60    4.86
   9  -4 -11    5.54    0.58
   9  -4 -11    3.74    4.60
  -9  -4  11    9.01    4.03
   9   4 -11    4.79    0.72
   9   4 -11    6.87    5.28
  -9   4  11    8.44    3.00
   9   4 -11    4.88    0.57
  -8  -4  11    4.07    2.78
   8  -4 -11    3.76    3.75
   8  -4 -11    2.66    0.43
   8   4 -11    3.96    4.25
   8   4 -11    3.11    0.50
   8   4 -11    3.51    0.56
  -8   4  11    2.67    2.12
   7  -4 -11    3.28    2.26
   7  -4 -11    3.53    0.40
  -7  -4  11    4.74    2.58
   7   4 -11    3.74    0.46
   7   4 -11   -0.30    2.42
  -7   4  11    2.58    1.46
   7   4 -11    3.41    0.53
   6  -4 -11   50.05    6.05
  -6  -4  11   44.80    6.15
   6  -4 -11   44.25    1.89
   6   4 -11   42.62    1.99
   6   4 -11   44.12    2.05
   6   4 -11   39.91    6.72
  -6   4  11   41.25    4.45
  -5  -4  11    1.30    1.70
   5  -4 -11    5.36    0.47
   5  -4 -11    5.97    2.27
   5   4 -11    5.27    0.52
   5   4 -11    9.06    3.66
   5   4 -11    5.73    0.53
  -5   4  11    5.24    1.61
   4  -4 -11   31.10    1.41
  -4  -4  11   31.14    4.47
   4  -4 -11   33.09    3.87
   4   4 -11   29.80    1.46
   4   4 -11   28.32    4.64
   4   4 -11   32.15    1.50
  -4   4  11   33.75    1.38
  -4   4  11   26.66    2.96
   3  -4 -11    1.39    0.84
   3  -4 -11    1.07    0.66
  -3  -4  11    1.69    1.38
   3  -4 -11    1.88    0.30
   3   4 -11    0.25    0.75
   3   4 -11    1.63    0.29
   3   4 -11    1.92    0.34
   2  -4 -11    4.59    1.42
   2  -4 -11    7.68    0.56
   2  -4 -11    5.83    1.44
  -2  -4  11    8.09    2.30
   2   4 -11    7.47    0.54
  -2   4  11    7.26    0.44
   2   4 -11    3.96    1.82
   2   4 -11    6.87    0.53
   1  -4 -11    0.12    0.10
   1  -4 -11    0.64    0.45
   1  -4 -11    0.58    0.80
   1   4 -11    0.29    0.12
   1   4 -11    0.91    0.84
  -1   4  11    0.25    0.09
   1   4 -11    0.28    0.13
   0  -4 -11    4.99    0.52
   0  -4 -11    6.95    2.34
   0   4 -11    6.07    2.06
   0   4  11    7.81    2.35
   0   4 -11    5.08    0.44
   0   4  11    5.06    0.41
   0   4 -11    4.70    1.75
   0   4 -11    4.97    0.43
  -1  -4 -11    0.10    0.97
  -1   4 -11    0.44    0.14
   1   4  11    0.16    0.61
  -1   4 -11    0.58    0.20
  -1   4 -11   -0.55    0.50
  -2  -4 -11    4.28    1.75
  -2   4 -11    6.26    0.50
   2   4  11    5.89    2.10
  -2   4 -11    6.32    0.60
  -2   4 -11    6.15    2.25
   3  -4  11   -0.26    0.66
  -3  -4 -11    0.47    1.05
   3   4  11    0.63    1.00
  -3   4 -11    0.18    0.10
  -3   4 -11    1.83    1.20
  -4  -4 -11    2.60    2.07
   4  -4  11    0.76    1.05
   4   4  11    0.83    1.28
  -4   4 -11    0.71    1.50
  -5  -4 -11    6.63    3.66
   5  -4  11    3.83    2.22
  -5   4 -11    3.23    2.21
   5   4  11    3.94    1.98
   5   4  11    6.23    0.69
   6  -4  11   12.36    3.84
   6  -4  11   15.49    1.10
  -6  -4 -11   12.00    4.22
   6   4  11    6.77    3.37
  -6   4 -11   11.00    4.03
   6   4  11   11.80    1.12
  -7  -4 -11   -0.22    2.63
   7  -4  11    0.92    2.17
   7   4  11    2.05    0.49
  -7   4 -11    0.94    2.48
   7   4  11    0.43    2.45
  -8  -4 -11   12.61    5.57
   8  -4  11   20.06    1.44
   8  -4  11   24.66    6.12
  -8   4 -11   23.09    7.09
   8   4  11   19.74    1.55
   8   4  11   22.00    6.10
   9  -4  11   -4.86    6.10
   9  -4  11    0.57    0.26
  -9   4 -11    5.60    4.51
   9   4  11   -3.10    3.64
   9   4  11    0.12    0.22
   9  -5 -11    4.39    0.60
  -9  -5  11    6.28    4.35
   9  -5 -11    2.95    4.22
   9   5 -11    5.76    0.70
   9   5 -11    4.92    6.43
   9   5 -11    5.98    0.66
  -9   5  11    3.61    2.28
   8  -5 -11    5.21    0.51
   8  -5 -11    4.54    3.20
   8   5 -11    4.10    0.63
   8   5 -11    3.58    0.58
  -8   5  11    5.03    2.15
   8   5 -11    2.99    4.25
  -7  -5  11    3.50    2.34
   7  -5 -11    1.69    2.17
   7   5 -11   -2.60    2.71
  -7   5  11    0.86    1.23
  -6  -5  11    8.84    2.95
   6  -5 -11    4.26    2.21
   6  -5 -11    5.93    0.51
   6   5 -11    7.11    0.65
   6   5 -11    6.19    0.61
   6   5 -11    7.04    3.65
  -6   5  11    4.37    1.43
   5  -5 -11   14.00    0.82
   5  -5 -11   17.14    3.57
  -5  -5  11   12.57    3.63
   5   5 -11   14.23    0.94
   5   5 -11    8.68    3.53
   5   5 -11   13.41    0.90
  -5   5  11   10.92    1.92
   4  -5 -11    0.72    0.85
  -4  -5  11    1.21    1.35
   4  -5 -11    0.50    0.44
   4  -5 -11    0.25    0.11
   4   5 -11    0.21    0.15
   4   5 -11    0.36    0.14
   4   5 -11    0.83    1.39
  -4   5  11    0.35    0.13
   3  -5 -11   11.70    0.72
   3  -5 -11   12.46    2.02
   3  -5 -11   10.92    1.64
  -3  -5  11    8.76    2.67
  -3   5  11   10.57    0.58
   3   5 -11    8.25    2.49
   3   5 -11    9.82    0.72
   3   5 -11   11.50    0.74
  -2  -5  11    2.12    1.13
   2  -5 -11    1.90    0.90
   2  -5 -11    3.25    1.02
   2  -5 -11    3.37    0.36
   2   5 -11    7.57    2.67
  -2   5  11    3.40    0.26
   2   5 -11    2.78    0.34
   2   5 -11    2.73    0.32
   1  -5 -11    6.37    0.55
   1  -5 -11    6.77    1.59
   1  -5 -11    4.34    1.27
   1   5 -11    5.69    0.48
  -1   5  11    6.32    0.39
   1   5 -11    6.32    2.19
   1   5 -11    5.68    0.47
   0  -5 -11    0.65    0.69
   0   5 -11    1.57    1.01
   0   5 -11    0.25    0.12
   0   5 -11    0.32    0.15
   0   5 -11   -0.03    0.73
   0   5  11    0.52    0.45
  -1  -5 -11    8.14    2.49
  -1   5 -11    9.02    0.62
   1   5  11    9.07    2.31
  -1   5 -11    9.10    0.65
  -1   5 -11    8.92    2.54
  -1   5 -11    7.53    2.24
  -2  -5 -11    6.33    2.30
  -2   5 -11    5.35    1.88
  -2   5 -11    4.32    1.93
  -2   5 -11    5.30    0.55
  -2   5 -11    6.33    0.51
   2   5  11    5.56    2.04
  -3  -5 -11    6.15    2.47
   3  -5  11    7.47    2.46
  -3   5 -11    6.61    2.72
  -3   5 -11    8.49    0.62
   3   5  11    5.94    2.10
  -4  -5 -11    8.14    3.08
   4  -5  11    8.44    2.60
  -4   5 -11    2.59    1.85
   4   5  11    3.55    2.16
  -5  -5 -11    1.71    2.12
   5  -5  11    0.89    1.36
   5   5  11    2.26    2.34
   5   5  11    1.88    0.45
  -5   5 -11    1.92    1.72
   6  -5  11   18.66    1.26
  -6  -5 -11   19.42    5.96
   6  -5  11   15.60    4.29
   6   5  11   14.83    4.20
   6   5  11   19.08    1.39
  -6   5 -11   15.14    4.83
  -7  -5 -11   11.10    4.66
   7  -5  11   13.98    4.04
   7   5  11   10.69    4.10
  -7   5 -11    6.31    3.49
   7   5  11   11.87    1.11
   8  -5  11   -0.10    0.22
  -8  -5 -11   -0.46    3.59
   8  -5  11    1.81    2.39
   8   5  11    0.03    0.23
  -8   5 -11   -3.32    3.28
   8   5  11   -0.09    3.31
   8  -6 -11    3.77    0.59
  -8  -6  11    2.74    3.10
   8  -6 -11    3.28    2.86
  -8   6  11    2.41    1.64
   8   6 -11    3.87    0.63
   8   6 -11   -2.68    5.13
   8   6 -11    3.75    0.64
  -7  -6  11   14.13    4.61
   7  -6 -11   13.87    3.60
   7  -6 -11   17.01    0.98
   7   6 -11   10.72    4.89
   7   6 -11   17.22    1.17
   7   6 -11   15.71    1.12
  -7   6  11   19.24    2.81
   6  -6 -11    0.98    0.25
   6  -6 -11    1.78    1.57
  -6  -6  11   -0.50    1.41
  -6   6  11    1.02    0.89
   6   6 -11    0.74    0.24
   6   6 -11    0.53    0.24
   6   6 -11   -1.53    2.22
  -5  -6  11    0.50    1.58
   5  -6 -11    1.87    0.30
   5  -6 -11    2.16    2.30
   5   6 -11    3.80    2.30
   4  -6 -11    2.11    1.27
   4  -6 -11    0.41    0.48
   4  -6 -11    0.90    0.23
  -4  -6  11    1.53    1.15
   4   6 -11    0.79    0.22
   4   6 -11    1.05    0.26
   4   6 -11   -1.03    1.34
  -4   6  11    1.37    0.29
  -3  -6  11    3.30    1.53
   3  -6 -11    4.94    1.39
   3  -6 -11    3.96    0.99
   3  -6 -11    4.27    0.52
   3   6 -11    2.30    1.88
   3   6 -11    4.87    0.47
   3   6 -11    4.30    0.46
  -3   6  11    4.45    0.31
   2  -6 -11    2.63    0.39
  -2  -6  11    2.16    1.40
   2  -6 -11    4.49    1.23
   2  -6 -11    2.64    0.97
  -2   6  11    2.93    0.23
   2   6 -11    1.33    1.27
   2   6 -11    2.95    0.33
   2   6 -11    2.85    0.36
   1  -6 -11   12.03    0.83
   1  -6 -11   13.52    2.05
   1  -6 -11   13.66    1.80
  -1   6  11   12.78    0.62
   1   6 -11   12.03    0.75
   1   6 -11   11.76    2.90
   1   6 -11   12.40    0.80
   0  -6 -11    3.46    1.50
   0   6  11    5.76    1.51
   0   6 -11    6.22    2.09
   0   6 -11    5.12    0.47
   0   6 -11    3.29    1.66
   0   6 -11    5.62    0.57
  -1  -6 -11   10.45    2.63
   1   6  11    9.59    2.32
  -1   6 -11    8.67    0.65
  -1   6 -11    9.68    0.66
  -1   6 -11    7.82    2.33
  -2  -6 -11    4.80    2.28
  -2   6 -11    3.75    0.45
  -2   6 -11    3.52    1.61
   2   6  11    3.62    1.84
  -2   6 -11    3.64    0.39
  -2   6 -11    0.71    1.17
  -3   6 -11   22.49    1.19
   3   6  11   22.27    3.83
  -3   6 -11   27.55    4.59
   4  -6  11    1.16    1.25
  -4  -6 -11    2.81    2.19
   4   6  11    1.20    0.33
   4   6  11    0.45    1.32
  -4   6 -11   -1.27    0.96
  -4   6 -11    1.22    0.29
  -5  -6 -11   19.49    5.05
   5  -6  11   32.30    5.00
  -5   6 -11   25.22    5.82
   5   6  11   35.81    5.70
   5   6  11   36.02    1.92
  -6  -6 -11   -0.97    2.04
   6  -6  11    0.96    0.31
   6  -6  11    0.15    1.25
   6   6  11    0.44    0.27
  -6   6 -11   -2.15    1.89
  -7  -6 -11   12.27    5.22
   7  -6  11   10.60    0.93
   7  -6  11   11.26    3.65
   7   6  11    8.70    4.23
  -7   6 -11    9.20    3.63
   7   6  11   13.52    1.20
   8  -6  11    1.18    0.34
  -8  -6 -11    0.67    3.64
   8  -6  11    1.55    3.14
  -8   6 -11   -3.54    3.99
   8   6  11    3.50    4.33
   8   6  11    1.33    0.49
  -8  -7  11   -2.60    2.88
   8  -7 -11    0.52    0.22
   8  -7 -11    1.58    2.10
   8   7 -11   -0.99    5.43
   8   7 -11    0.29    0.20
   8   7 -11    0.78    0.35
  -8   7  11   -0.03    1.12
  -7  -7  11   27.10    5.88
   7  -7 -11   25.59    1.27
   7  -7 -11   16.30    3.16
   7   7 -11   20.59    6.14
   7   7 -11   26.34    1.51
   7   7 -11   24.81    1.51
  -7   7  11   24.65    2.85
   6  -7 -11    0.31    0.15
  -6  -7  11   -0.74    1.82
   6   7 -11   -3.75    1.73
   6   7 -11    0.00    0.13
   5  -7 -11   35.79    2.87
   5  -7 -11   39.75    2.48
   5  -7 -11   41.31    1.72
  -5  -7  11   30.98    5.37
  -5   7  11   41.42    1.65
   5   7 -11   40.39    1.97
   5   7 -11   39.06    6.34
   5   7 -11   38.02    1.93
  -4  -7  11    6.22    3.28
   4  -7 -11    9.92    0.69
   4   7 -11   10.48    0.81
   4   7 -11   11.34    0.78
   4   7 -11    6.14    4.66
   3  -7 -11   25.42    1.49
  -3  -7  11   25.09    4.07
   3   7 -11   28.80    1.37
   3   7 -11   25.77    4.53
   3   7 -11   26.35    1.41
  -2  -7  11    0.93    0.62
   2  -7 -11    0.72    0.50
   2  -7 -11    0.04    0.10
   2   7 -11    0.28    0.12
   1  -7 -11    5.76    0.68
   1  -7 -11    6.64    1.38
   1  -7 -11    7.01    1.77
   1   7 -11    9.01    2.82
   1   7 -11    5.93    0.50
   1   7 -11    6.42    0.56
   0  -7 -11    0.13    0.77
   0   7 -11    0.20    0.11
   0   7 -11    0.69    0.81
   0   7 -11    0.06    0.09
   0   7 -11    0.28    0.78
  -1  -7 -11    0.47    1.04
  -1   7 -11    0.51    0.17
  -1   7 -11    1.00    1.32
  -1   7 -11    1.68    1.28
  -1   7 -11    0.88    0.22
   1   7  11    0.43    0.62
  -2  -7 -11   -0.04    1.05
  -2   7 -11    2.47    1.47
  -2   7 -11    0.96    0.26
   2   7  11    2.53    1.21
  -2   7 -11    0.10    1.16
  -3  -7 -11    3.24    1.96
  -3   7 -11    4.73    0.47
   3   7  11    4.11    2.09
  -3   7 -11    4.09    2.27
  -3   7 -11    4.56    1.63
  -4  -7 -11   -0.45    1.19
   4   7  11    1.03    1.62
  -4   7 -11    1.64    1.42
  -4   7 -11    0.76    0.22
   4   7  11    1.01    0.29
   5  -7  11   10.66    0.87
   5  -7  11    7.76    2.96
  -5  -7 -11    7.15    3.60
  -5   7 -11    9.34    3.81
   5   7  11   11.50    0.98
   6  -7  11    0.25    0.18
   6  -7  11    0.36    1.65
  -6  -7 -11   -0.25    2.69
   6   7  11    0.15    0.23
  -6   7 -11    4.74    2.83
   6   7  11    3.46    2.52
   7  -7  11   21.36    1.35
   7  -7  11   21.40    5.23
   7   7  11   21.63    1.62
   7   7  11   22.75    6.10
  -7   7 -11   23.87    6.14
   8  -7  11    2.47    0.50
  -8   7 -11    2.08    4.01
   8   7  11    1.99    0.52
  -7  -8  11   10.52    3.96
   7  -8 -11   12.62    0.80
   7   8 -11   13.13    5.85
   7   8 -11   12.12    0.96
   7   8 -11    9.14    0.91
   6  -8 -11    2.13    0.36
  -6  -8  11    3.42    2.65
   6   8 -11   -1.18    3.12
   6   8 -11    1.99    0.39
   6   8 -11    1.97    0.40
   5  -8 -11    2.60    0.31
   5   8 -11    0.14    1.57
   5   8 -11    1.95    0.40
   5   8 -11    1.69    0.37
  -4  -8  11   13.32    3.89
   4  -8 -11   13.60    0.87
   4   8 -11   12.61    4.25
   4   8 -11   15.09    1.04
   4   8 -11   15.30    0.95
  -3  -8  11    2.36    1.72
   3  -8 -11    3.39    0.41
   3   8 -11    3.46    0.40
   3   8 -11    2.85    1.90
   3   8 -11    2.65    0.46
  -2  -8  11   -0.38    0.85
   2  -8 -11    0.71    0.22
   2   8 -11    0.83    1.22
   2   8 -11    0.44    0.17
   2   8 -11    0.39    0.13
   1  -8 -11    2.39    0.76
   1  -8 -11    1.60    0.91
   1   8 -11    2.04    0.33
   1   8 -11    1.94    1.52
   1   8 -11    1.64    0.35
   0  -8 -11    6.69    2.07
   0   8 -11    5.00    0.50
   0   8 -11    5.28    2.28
   0   8 -11    6.03    0.49
   0   8 -11    2.68    1.75
   0   8  11    6.85    1.62
  -1  -8 -11    2.80    1.46
  -1   8 -11    5.53    0.52
  -1   8 -11    2.64    1.66
  -1   8 -11    3.19    1.99
   1   8  11    5.20    1.64
  -1   8 -11    4.48    0.46
  -2  -8 -11   -0.86    0.95
  -2   8 -11    0.30    0.15
  -2   8 -11    0.62    0.78
  -2   8 -11    1.72    1.43
  -2   8 -11    0.10    0.10
  -3  -8 -11   12.17    3.63
  -3   8 -11    6.48    2.59
  -3   8 -11    7.81    0.64
   3   8  11    8.07    0.73
   3   8  11    4.37    3.24
  -3   8 -11    8.37    2.71
  -4  -8 -11    2.85    1.98
   4   8  11    3.92    0.61
  -4   8 -11    0.48    1.78
  -4   8 -11    3.07    0.47
   5  -8  11   10.67    0.86
  -5  -8 -11   14.66    4.37
   5   8  11    8.35    3.31
  -5   8 -11   12.78    4.20
   5   8  11   11.32    1.80
   6  -8  11    2.90    2.45
  -6  -8 -11    1.14    3.34
   6  -8  11    0.72    0.29
  -6   8 -11    0.15    2.81
   6   8  11    0.97    0.37
   6   8  11   -0.71    2.40
   7  -8  11    3.13    0.51
   7  -8  11   -3.89    3.41
   7   8  11    2.44    0.56
  -7   8 -11    2.17    3.02
   7  -9 -11    2.62    0.42
  -7  -9  11   -0.31    2.82
   7   9 -11    2.74    0.52
   7   9 -11    3.54    0.67
  -6  -9  11   15.29    4.29
   6  -9 -11   19.27    1.03
   6   9 -11   18.36    1.21
   6   9 -11   19.54    1.31
   6   9 -11   17.51    5.12
   5  -9 -11    0.86    0.25
   5   9 -11    0.17    2.10
   5   9 -11    0.65    0.25
   5   9 -11    0.70    0.20
   4  -9 -11    1.05    0.27
  -4  -9  11    2.18    1.67
   4   9 -11    2.04    0.43
   4   9 -11    0.63    2.01
   4   9 -11    1.51    0.30
   3  -9 -11    0.64    0.25
  -3  -9  11   -0.38    1.47
   3   9 -11    0.79    0.24
   3   9 -11    0.49    0.18
   3   9 -11    0.32    1.75
  -2  -9  11    1.58    1.42
   2   9 -11    1.82    0.36
   2   9 -11    2.71    1.91
   2   9 -11    1.31    0.26
   1   9 -11    1.83    0.35
   1   9 -11    1.33    0.28
   1   9 -11   -0.34    0.96
   0  -9 -11    5.70    1.68
   0   9 -11    3.85    0.40
   0   9 -11    2.16    1.39
   0   9 -11    4.43    0.48
   0   9 -11    2.81    1.96
  -1  -9 -11    4.15    1.65
   1   9  11    4.37    1.58
  -1   9 -11    7.17    2.80
  -1   9 -11    4.08    0.64
  -1   9 -11    3.75    0.44
  -1   9 -11    5.22    2.44
  -2  -9 -11   16.59    4.02
   2  -9  11    9.62    0.89
   2   9  11   13.60    0.91
  -2   9 -11   14.05    0.89
  -2   9 -11    9.20    2.99
  -2   9 -11   12.84    3.23
  -2   9 -11   13.30    0.88
   3  -9  11    1.17    0.22
  -3  -9 -11   -0.84    1.47
  -3   9 -11    0.98    0.27
  -3   9 -11    1.50    1.54
   3   9  11    0.49    0.25
  -4  -9 -11   17.45    4.46
  -4   9 -11   15.69    4.68
   4   9  11   21.00    1.41
  -4   9 -11   26.57    4.44
   4   9  11   19.46    4.24
   5  -9  11    0.24    0.18
  -5  -9 -11   -0.45    3.04
  -5   9 -11    0.51    0.18
   5   9  11    0.57    2.06
  -5   9 -11   -1.60    0.80
   5   9  11    0.25    0.22
  -5   9 -11    0.09    1.39
   6  -9  11   11.73    0.87
   6   9  11   14.23    1.20
  -6   9 -11    5.63    3.55
   7  -9  11    0.36    3.67
   7  -9  11    4.03    0.57
   7   9  11    3.24    0.71
  -7   9 -11    1.35    4.28
  -6 -10  11   15.29    4.61
   6 -10 -11   15.74    1.04
   6  10 -11   13.48    1.16
   6  10 -11   15.39    1.09
   5 -10 -11    1.82    0.34
  -5 -10  11    4.73    2.49
   5  10 -11    2.11    0.40
   5  10 -11    1.21    0.34
  -4 -10  11   13.65    3.70
   4 -10 -11   19.46    1.06
   4  10 -11   18.83    1.26
   4  10 -11   18.17    6.35
   4  10 -11   17.89    1.10
  -3 -10  11    2.93    1.96
   3  10 -11    1.04    0.28
   3  10 -11   -0.96    1.96
   3  10 -11    0.78    0.29
  -3  10  11    0.64    0.20
  -2 -10  11   13.91    3.53
   2  10 -11   19.39    1.18
   2  10 -11   17.96    1.02
   2  10 -11   17.29    4.76
   1  10 -11    2.21    0.35
   1  10 -11    3.36    2.08
   1  10 -11    5.72    2.63
   0 -10 -11    5.86    1.32
   0  10 -11    3.81    2.20
   0  10 -11    6.10    2.35
   0  10 -11    6.38    0.60
   0  10 -11    6.15    0.52
  -1 -10 -11    0.85    1.44
  -1  10 -11    0.69    0.23
  -1  10 -11    0.50    1.02
   1  10  11    1.34    1.28
   2 -10  11    2.95    0.31
  -2 -10 -11    1.72    1.74
  -2  10 -11    2.72    0.44
   2  10  11    2.16    0.40
  -2  10 -11    3.42    0.41
   2  10  11    4.18    1.98
  -2  10 -11    0.61    1.97
   3 -10  11    1.81    0.28
  -3 -10 -11    0.54    1.57
   3  10  11    2.15    0.45
  -3  10 -11    1.33    1.57
  -3  10 -11    0.40    1.32
  -4  10 -11    1.20    0.32
  -4  10 -11    1.42    1.40
   4  10  11    1.84    0.42
  -4  10 -11    1.54    1.86
   5 -10  11    0.38    0.23
   5  10  11    0.72    0.33
  -5  10 -11    3.08    2.32
  -5  10 -11    0.41    0.18
   6 -10  11   11.56    0.81
   6  10  11   10.66    1.05
  -6  10 -11    8.24    4.32
   6  11 -11   -0.07    0.19
   6  11 -11    0.47    0.24
  -5 -11  11    1.98    2.79
   5  11 -11    4.93    0.54
   5  11 -11    1.67    3.14
   5  11 -11    4.23    0.72
  -4 -11  11    1.69    2.29
   4  11 -11    2.32    0.41
   4  11 -11    3.09    0.57
   4  11 -11    2.97    2.50
  -3 -11  11   -1.87    1.76
   3  11 -11    0.04    0.11
   3  11 -11    1.67    2.15
   3  11 -11   -0.01    0.12
  -2 -11  11    6.07    2.42
  -2  11  11    3.24    0.37
   2  11 -11    2.51    2.56
   2  11 -11    3.92    0.62
   2  11 -11    3.67    0.42
   1  11 -11    0.42    0.15
   1  11 -11    0.45    1.02
   1  11 -11   -2.23    1.65
   1  11 -11    0.28    0.15
   0  11 -11   10.27    0.80
   0  11 -11    7.79    2.75
   0  11 -11    6.23    2.84
   0  11 -11    8.86    0.66
  -1 -11 -11    2.20    1.39
  -1  11 -11    1.34    0.31
   1  11  11    1.76    1.07
  -1  11 -11    0.39    0.28
  -1  11 -11    0.76    1.85
  -1  11 -11    1.13    1.24
  -2  11 -11    2.59    1.66
   2  11  11    1.01    1.82
  -2  11 -11   -0.73    1.29
  -2  11 -11    2.59    0.41
  -2  11 -11    2.55    0.44
   2  11  11    2.90    0.49
   3  11  11    1.46    0.43
  -3  11 -11    3.11    2.37
  -3  11 -11    1.59    0.35
   4 -11  11   16.91    0.99
  -4  11 -11   13.94    4.36
   4  11  11   16.08    1.28
  -4  11 -11   15.34    1.06
   5 -11  11    0.07    0.23
  -5  11 -11    2.67    3.16
  -5  11 -11    0.43    0.21
   5  11  11    0.60    0.27
   6  11  11    1.78    0.51
   5  12 -11    2.46    0.43
   5  12 -11    3.22    0.59
   4  12 -11    1.65    0.40
   4  12 -11    1.07    0.28
   3  12 -11    2.45    0.47
   3  12 -11    1.55    0.40
   2  12 -11    0.95    3.27
   2  12 -11    1.19    0.34
   2  12 -11    0.83    0.23
   1  12 -11    0.82    0.31
   1  12 -11    2.11    2.56
   1  12 -11    1.10    1.68
   0  12  11    1.76    0.34
   0  12 -11    2.62    0.46
   0  12 -11    2.79    0.39
   0  12 -11    0.87    1.37
  -1  12 -11    3.46    1.98
   1  12  11    4.36    0.59
  -1  12 -11    3.32    0.47
  -1  12 -11    3.01    0.49
  -2  12 -11   -0.30    1.42
   2  12  11   -0.08    0.16
  -2  12 -11    0.16    0.17
  -3  12 -11    2.16    0.41
  -3  12 -11    0.47    2.35
   3  12  11    3.41    0.57
  -4  12 -11    2.33    3.27
   4  12  11    0.70    0.23
  -4  12 -11    0.10    0.16
  -5  12 -11   10.15    0.87
   5  12  11    8.94    0.99
   3  13 -11   12.42    0.85
   3  13 -11   11.54    0.97
   2  13 -11    3.22    0.45
   2  13 -11    3.03    0.53
   1  13 -11    8.02    0.62
   1  13 -11    9.09    0.81
   1  13 -11    2.60    2.22
   0  13 -11    1.24    1.74
  -1  13 -11    5.56    2.64
   1  13  11    5.52    0.62
  -1  13 -11    7.08    0.68
  -1  13 -11    6.11    0.56
  -2  13 -11    0.50    2.18
  -2  13 -11    0.89    0.28
   2  13  11    1.78    0.37
  -3  13 -11    3.85    2.95
   1  14 -11    7.03    0.74
   1  14 -11    5.62    0.54
   0  14 -11    4.02    0.61
   1  14  11    7.64    0.72
  -1  14 -11    6.93    0.73
  -9   0  12    1.04    1.77
  -8   0  12    7.80    3.00
   8   0 -12   11.75    0.73
   8   0 -12   12.90    0.92
   7   0 -12    0.21    0.12
  -7   0  12    0.95    1.19
   7   0 -12    0.40    0.17
  -6   0  12   74.18    7.27
   6   0 -12   80.32    2.93
   6   0 -12   83.14    3.18
  -5   0  12    0.64    0.82
   5   0 -12    0.26    0.10
   4   0 -12   31.18    1.31
   4   0 -12   31.26    1.46
  -4   0  12   32.38    4.09
  -3   0  12    0.78    0.70
   3   0 -12    0.62    0.15
   3   0 -12    0.07    0.68
   2   0 -12   11.94    0.74
   2   0 -12   12.73    2.93
   2   0 -12   11.39    0.62
   1   0 -12    0.04    0.05
   1   0 -12    0.05    0.07
   1   0 -12   -0.15    0.59
   1   0 -12    0.07    0.49
   0   0 -12    3.35    1.65
   0   0 -12    4.19    0.44
   0   0 -12    2.90    1.33
   0   0 -12    4.95    0.37
   1   0  12   -0.31    0.74
  -1   0 -12    0.35    0.15
  -1   0 -12    0.47    0.71
   2   0  12   13.46    3.02
  -2   0 -12   18.18    3.84
  -2   0 -12   15.20    1.06
  -3   0 -12   -0.15    0.87
   3   0  12    0.80    1.05
   4   0  12   13.95    3.71
  -4   0 -12   13.77    3.65
  -5   0 -12   -0.06    1.23
   5   0  12    0.99    1.44
  -6   0 -12   57.21    8.60
   6   0  12   65.49    7.88
   6   0  12   68.18    3.30
   7   0  12    1.46    2.12
  -7   0 -12    3.99    3.12
   8   0  12   16.13    4.73
   8   0  12   14.21    1.25
  -8   0 -12   13.42    5.20
   9   0  12   -0.08    0.24
   9   0  12    5.74    4.13
  -9   0 -12   -0.54    4.24
   9  -1 -12   34.21    1.42
   9  -1 -12   24.43    8.73
  -9  -1  12   29.58    6.41
   9  -1 -12   34.94    1.77
   9   1 -12   14.91    6.90
   9   1 -12   34.32    1.60
   9   1 -12   35.01    1.85
   8  -1 -12   13.61    5.09
   8  -1 -12    7.50    0.51
  -8  -1  12    4.82    2.46
   8  -1 -12    7.45    0.66
  -8   1  12    6.70    2.71
   8   1 -12    4.22    3.28
   8   1 -12    7.23    0.60
   8   1 -12    6.88    0.68
   7  -1 -12   40.40    1.84
   7  -1 -12   37.29    1.54
   7  -1 -12   29.82    6.55
  -7  -1  12   37.57    5.41
   7   1 -12   38.74    1.69
   7   1 -12   37.13    7.82
   7   1 -12   37.65    1.85
  -7   1  12   38.72    5.40
  -6  -1  12   12.85    3.65
   6  -1 -12   13.86    0.71
   6  -1 -12   14.08    0.90
   6   1 -12   13.75    4.03
   6   1 -12   12.37    0.78
  -6   1  12   12.41    3.22
   6   1 -12   14.38    0.92
   5  -1 -12    4.40    0.33
   5  -1 -12    3.64    0.41
  -5  -1  12    2.37    1.37
   5  -1 -12    2.76    1.55
   5   1 -12    2.04    1.45
   5   1 -12    5.78    0.52
  -5   1  12    2.10    1.25
   5   1 -12    4.71    0.42
   4  -1 -12  101.64    3.63
   4  -1 -12   94.35    8.10
  -4  -1  12   94.12    7.53
   4  -1 -12   98.46    3.36
   4   1 -12   97.74    3.64
   4   1 -12   99.53    3.51
   4   1 -12   97.50    8.54
  -4   1  12  100.50    7.26
   3  -1 -12   41.20    1.56
   3  -1 -12   41.30    4.79
   3  -1 -12   43.59    1.79
  -3  -1  12   33.38    4.11
   3   1 -12   44.40    1.80
   3   1 -12   40.30    4.97
   3   1 -12   38.91    1.82
  -3   1  12   44.79    4.39
   2  -1 -12  152.81    5.12
   2  -1 -12  152.84    9.50
   2  -1 -12  162.82    5.39
   2  -1 -12  138.34    8.58
   2   1 -12  153.75   10.01
   2   1 -12  157.14    5.38
   2   1 -12  162.14    5.24
   1  -1 -12  292.44   14.25
   1  -1 -12  251.76    8.87
   1   1 -12  298.45   14.86
   1   1 -12  256.49    8.86
   1   1 -12  271.66   14.79
  -1   1  12  263.09    8.78
   1   1 -12  258.97    8.71
   0  -1 -12    0.64    0.61
   0  -1 -12    0.38    0.83
   0  -1 -12    0.81    0.23
   0   1 -12    0.84    0.21
   0   1 -12   -0.29    0.91
   0   1 -12    1.06    0.21
   0   1 -12    1.70    1.11
  -1  -1 -12  284.64   15.58
  -1  -1 -12  251.18    9.06
  -1   1 -12  253.33    9.02
  -1   1 -12  295.61   15.88
  -1   1 -12  250.28    8.77
   1   1  12  300.36   15.35
  -2  -1 -12  126.38    9.83
   2  -1  12  144.09    9.76
  -2  -1 -12  143.71    5.36
   2   1  12  148.60    9.82
  -2   1 -12  155.56    5.36
  -2   1 -12  134.83   10.05
   3  -1  12   45.37    5.32
  -3  -1 -12   44.71    5.95
   3   1  12   45.12    5.35
  -3   1 -12   39.01    5.47
  -4  -1 -12   93.68    9.48
   4  -1  12   96.09    8.59
  -4   1 -12   79.89    8.83
   4   1  12   94.32    8.59
  -5  -1 -12    2.63    1.87
   5  -1  12    5.76    2.48
  -5   1 -12    3.73    2.32
   5   1  12    1.30    1.76
   6  -1  12   17.76    4.50
  -6  -1 -12   14.51    5.37
   6  -1  12   23.54    1.54
  -6   1 -12   20.66    5.57
   6   1  12   20.27    5.38
   7  -1  12   36.60    6.21
   7  -1  12   38.97    2.21
  -7  -1 -12   34.57    7.86
  -7   1 -12   34.70    7.83
   7   1  12   40.86    6.69
   7   1  12   37.82    2.20
  -8  -1 -12    9.56    5.02
   8  -1  12    3.36    3.38
   8  -1  12    6.84    0.83
   8   1  12    6.45    0.81
   8   1  12    4.71    3.33
  -8   1 -12    9.59    5.19
   9  -1  12   32.95    7.48
   9  -1  12   38.05    2.25
  -9  -1 -12   32.47    8.28
   9   1  12   40.07    9.43
  -9   1 -12   19.54    7.37
  -9  -2  12   11.24    3.66
   9  -2 -12    9.13    0.76
   9  -2 -12    7.52    6.63
   9   2 -12    7.57    0.68
   9   2 -12   13.70    8.60
  -9   2  12   10.25    3.59
   9   2 -12    9.32    1.54
   8  -2 -12   95.84   11.14
  -8  -2  12   92.49   13.01
   8  -2 -12   93.08    3.68
  -8   2  12   89.12    8.65
   8   2 -12  103.72   19.98
   8   2 -12   97.27    3.83
   8   2 -12   93.75    3.60
   7  -2 -12   19.77    1.13
  -7  -2  12   12.95    3.54
   7   2 -12   18.61    1.17
   7   2 -12   12.44    4.35
   7   2 -12   19.71    1.08
  -6  -2  12   42.36    5.76
   6  -2 -12   52.41    2.20
   6  -2 -12   48.77    6.74
  -6   2  12   50.32    5.54
   6   2 -12   50.34    6.95
   6   2 -12   54.52    2.17
   5  -2 -12  172.49   12.15
   5  -2 -12  191.48    6.33
  -5  -2  12  179.47   12.02
   5   2 -12  187.93    6.39
   5   2 -12  183.68   13.55
  -5   2  12  169.80   10.45
   5   2 -12  185.98    6.26
  -4  -2  12    8.62    2.71
   4  -2 -12   10.40    0.69
   4  -2 -12   10.20    0.48
   4  -2 -12    6.98    2.37
   4   2 -12   10.45    2.71
  -4   2  12    6.96    2.07
   4   2 -12    9.87    0.71
   4   2 -12   11.20    0.69
   3  -2 -12  295.19    9.56
   3  -2 -12  288.20   14.76
  -3  -2  12  292.09   15.03
   3  -2 -12  290.37    9.20
   3   2 -12  283.26    9.56
   3   2 -12  300.03    9.49
   3   2 -12  264.52   15.51
  -2  -2  12  299.54   15.04
   2  -2 -12  284.79   13.54
   2  -2 -12  285.77   14.27
   2  -2 -12  310.73    9.92
   2   2 -12  294.32    9.88
   2   2 -12  291.60   15.57
  -2   2  12  318.72    9.80
   2   2 -12  305.34    9.80
   1  -2 -12   63.84    5.63
   1  -2 -12   51.02    2.21
   1  -2 -12   56.81    5.27
  -1   2  12   54.28    2.08
   1   2 -12   54.91    2.11
   1   2 -12   54.14    2.19
   1   2 -12   50.70    6.42
   1   2 -12   56.49    5.71
   0  -2 -12  345.77   11.64
   0  -2 -12  397.07   17.92
   0   2  12  330.41   11.34
   0   2 -12  375.52   18.20
   0   2 -12  335.63   11.38
   0   2 -12  337.94   11.53
   0   2 -12  365.28   18.08
  -1  -2 -12   42.60    2.00
  -1  -2 -12   49.99    5.78
   1   2  12   51.17    5.49
  -1   2 -12   44.98    5.60
  -1   2 -12   40.35    1.90
  -1   2 -12   41.14    1.74
   2  -2  12  293.92   15.49
  -2  -2 -12  274.93   15.95
  -2   2 -12  287.63   16.16
  -2   2 -12  302.09   10.08
   2   2  12  320.01   15.81
  -3  -2 -12  252.14   16.08
   3  -2  12  281.61   15.38
  -3   2 -12  257.49   16.10
   3   2  12  288.55   15.70
  -4  -2 -12    5.89    4.50
   4  -2  12   13.49    3.46
  -4   2 -12    9.32    3.28
   4   2  12   15.34    5.20
  -5  -2 -12  169.32   14.45
   5  -2  12  184.35   13.19
   5   2  12  207.21   14.17
  -5   2 -12  197.21   15.34
   6  -2  12   48.09    6.74
  -6  -2 -12   50.86    7.78
   6  -2  12   57.02    2.71
  -6   2 -12   60.19    8.39
   6   2  12   54.77    2.83
   6   2  12   45.23    6.64
  -7  -2 -12   18.45    5.52
   7  -2  12   25.28    5.68
   7  -2  12   22.08    1.54
   7   2  12   16.33    4.29
  -7   2 -12   21.25    6.26
   7   2  12   24.73    1.66
   8  -2  12   98.51    4.28
  -8  -2 -12  109.04   13.21
   8  -2  12   97.21   11.03
   8   2  12   97.30    4.36
   8   2  12   92.11   10.80
  -8   2 -12   82.55   11.95
   9  -2  12    5.05    0.87
  -9  -2 -12    6.62    4.37
   9  -2  12   -1.53    4.17
  -9   2 -12   13.83    6.47
   9   2  12   11.59    5.20
   9   2  12    4.50    0.81
   9  -3 -12    2.97    7.22
  -9  -3  12    0.18    2.88
  -9   3  12    1.34    2.16
   8  -3 -12    5.75    4.06
  -8  -3  12   14.12    4.07
   8  -3 -12    8.52    0.73
   8   3 -12    9.74    0.76
  -8   3  12   10.23    3.19
   8   3 -12   10.01    4.75
   8   3 -12   10.25    0.86
   7  -3 -12   63.41    7.81
  -7  -3  12   57.31    7.14
  -7   3  12   61.84    6.24
   7   3 -12   64.70    9.06
   7   3 -12   65.06    2.76
   6  -3 -12   37.48    5.70
   6  -3 -12   34.13    1.61
  -6  -3  12   30.28    5.06
  -6   3  12   42.47    4.69
   6   3 -12   38.27    6.49
   6   3 -12   33.10    1.63
   6   3 -12   34.95    1.73
   5  -3 -12   57.19    6.24
   5  -3 -12   61.60    2.40
  -5  -3  12   59.75    6.51
   5   3 -12   61.96    2.44
  -5   3  12   52.23    4.97
   5   3 -12   60.23    2.48
   5   3 -12   51.33    6.95
   4  -3 -12   30.93    4.14
  -4  -3  12   25.97    3.84
   4  -3 -12   31.42    1.43
  -4   3  12   30.99    3.51
   4   3 -12   30.74    1.48
   4   3 -12   30.68    4.84
   4   3 -12   29.38    1.41
   3  -3 -12    1.23    0.84
   3  -3 -12    0.83    0.21
   3  -3 -12    0.53    0.90
  -3  -3  12   -0.26    0.46
  -3   3  12    1.59    0.25
   3   3 -12    1.45    0.29
   3   3 -12    0.81    0.21
   3   3 -12    0.17    1.04
   2  -3 -12   31.25    3.31
   2  -3 -12   36.13    1.56
  -2  -3  12   31.38    4.07
   2  -3 -12   27.63    4.25
   2   3 -12   29.51    4.28
   2   3 -12   34.57    1.50
   2   3 -12   33.39    1.52
  -2   3  12   35.85    1.42
   1  -3 -12  140.18    8.45
   1  -3 -12  149.99    5.26
   1  -3 -12  145.49    8.49
   1   3 -12  150.54    9.63
   1   3 -12  154.14    5.14
   1   3 -12  151.32    5.19
   1   3 -12  139.10    9.64
  -1   3  12  154.55    5.03
   0  -3 -12    0.68    1.02
   0  -3 -12    0.22    0.09
   0   3  12   -0.11    0.05
   0   3 -12   -0.80    0.45
   0   3 -12   -0.03    0.44
   0   3 -12    0.14    0.11
   0   3 -12    0.02    0.07
  -1  -3 -12  174.89    6.15
  -1  -3 -12  165.33   11.83
  -1   3 -12  170.65    5.80
   1   3  12  185.87   12.10
  -1   3 -12  171.89    5.98
  -1   3 -12  159.91   10.71
  -1   3 -12  161.89   10.38
  -2  -3 -12   21.37    5.16
   2  -3  12   35.02    4.58
   2   3  12   24.81    5.87
  -2   3 -12   28.41    4.31
  -2   3 -12   36.12    1.53
  -2   3 -12   38.04    1.78
   3  -3  12    1.08    0.94
  -3  -3 -12    1.08    1.74
  -3   3 -12    1.38    1.22
   3   3  12    0.91    1.14
   4  -3  12   30.00    4.61
  -4  -3 -12   33.28    5.53
   4   3  12   30.24    4.82
  -4   3 -12   30.23    6.20
  -5  -3 -12   39.65    6.22
   5  -3  12   40.40    5.69
   5   3  12   45.32    2.21
  -5   3 -12   28.38    6.34
   5   3  12   36.54    5.89
  -6  -3 -12   28.64    6.46
   6  -3  12   34.41    1.97
   6  -3  12   40.74    5.97
   6   3  12   37.70    2.08
   6   3  12   32.98    5.77
  -6   3 -12   28.06    7.08
  -7  -3 -12   52.54    8.60
   7  -3  12   53.61    7.49
   7  -3  12   59.17    2.85
  -7   3 -12   50.45    8.01
   7   3  12   56.36    8.16
   7   3  12   56.90    2.92
   8  -3  12    6.74    0.84
  -8  -3 -12    8.04    4.79
   8  -3  12    1.48    2.94
  -8   3 -12   -0.02    3.51
   8   3  12    8.32    0.94
   8   3  12    3.76    2.99
   9  -3  12    2.75    5.28
  -9  -3 -12   20.24   10.65
   9  -3  12    9.97    1.03
   9   3  12   10.91    1.16
  -9   3 -12    2.54    4.67
  -8  -4  12   17.62    4.69
   8  -4 -12   22.94    1.27
   8  -4 -12   22.24    5.72
   8   4 -12   24.87    1.45
  -8   4  12   17.54    3.61
   8   4 -12   17.72    7.03
   8   4 -12   20.87    1.29
   7  -4 -12   10.58    4.01
   7  -4 -12   15.59    0.96
  -7  -4  12   18.75    4.90
  -7   4  12   14.77    3.43
   7   4 -12   12.29    4.77
   7   4 -12   15.89    1.08
   7   4 -12   15.70    1.03
   6  -4 -12   17.75    4.34
   6  -4 -12   20.12    1.12
  -6  -4  12   22.00    5.22
   6   4 -12   23.10    1.26
   6   4 -12   17.66    4.55
   6   4 -12   21.42    1.26
  -6   4  12   22.41    3.17
   5  -4 -12   15.34    0.89
   5  -4 -12   15.30    3.67
  -5  -4  12   11.96    3.39
  -5   4  12   14.77    2.37
   5   4 -12    9.90    3.48
   5   4 -12   14.19    0.94
   5   4 -12   15.34    0.95
  -4  -4  12    1.70    1.47
   4  -4 -12   -1.02    0.87
   4  -4 -12    0.58    0.20
   4   4 -12    1.12    0.24
   4   4 -12    0.94    0.25
   3  -4 -12   59.68    5.17
   3  -4 -12   60.51    2.33
   3  -4 -12   52.28    4.20
  -3  -4  12   61.18    6.14
   3   4 -12   58.91    2.36
   3   4 -12   55.37    2.32
  -3   4  12   59.30    2.19
   3   4 -12   55.89    6.46
   2  -4 -12   73.75    5.21
  -2  -4  12   81.67    7.00
   2  -4 -12   67.29    5.35
   2  -4 -12   77.98    2.94
   2   4 -12   78.41    2.91
   2   4 -12   75.75    2.89
   2   4 -12   69.75    6.90
  -2   4  12   78.59    2.73
   1  -4 -12    4.45    1.47
   1  -4 -12    2.82    1.32
   1  -4 -12    5.26    0.50
  -1   4  12    5.12    0.37
   1   4 -12    4.39    1.79
   1   4 -12    5.54    0.48
   1   4 -12    5.21    0.45
   1   4 -12    4.18    1.68
   0  -4 -12  279.67    8.98
   0  -4 -12  265.19   13.40
   0   4 -12  263.41    8.76
   0   4 -12  264.44    8.70
   0   4 -12  237.25   13.71
   0   4 -12  253.26   14.07
   0   4  12  265.43    8.56
  -1  -4 -12    2.44    1.42
  -1  -4 -12    2.73    0.49
  -1   4 -12    2.80    0.44
   1   4  12    1.93    1.00
  -1   4 -12    2.08    0.33
  -1   4 -12    1.96    1.01
  -1   4 -12    3.79    1.61
  -2  -4 -12   74.55    7.36
  -2   4 -12   84.25    3.09
  -2   4 -12   83.55    3.31
  -2   4 -12   77.69    7.51
   2   4  12   84.80    7.14
  -3  -4 -12   52.94    6.38
   3  -4  12   47.55    5.62
  -3   4 -12   50.35    2.11
   3   4  12   52.40    5.83
  -3   4 -12   45.74    6.16
  -4  -4 -12    1.25    1.47
   4  -4  12    0.30    1.20
  -4   4 -12    2.54    1.84
   4   4  12    1.87    1.71
  -5  -4 -12   22.32    5.64
   5  -4  12   10.82    3.22
   5   4  12   22.25    5.03
  -5   4 -12   15.88    4.97
   5   4  12   15.71    1.20
  -6  -4 -12   23.62    6.08
   6  -4  12   13.52    4.09
   6  -4  12   22.03    1.45
   6   4  12   22.10    1.51
   6   4  12   20.00    5.58
  -6   4 -12   20.74    6.41
   7  -4  12    7.18    3.66
  -7  -4 -12   13.91    4.89
   7  -4  12    9.89    0.95
  -7   4 -12    6.47    3.57
   7   4  12    9.61    1.01
   7   4  12    7.49    3.71
   8  -4  12   29.01    6.72
   8  -4  12   28.23    1.79
   8   4  12   29.36    1.98
  -8   4 -12   20.70    6.23
  -8  -5  12    4.17    2.86
   8  -5 -12    1.85    4.43
   8   5 -12    0.60    4.08
  -8   5  12    2.95    2.24
   7  -5 -12   29.19    5.49
   7  -5 -12   18.02    1.06
  -7  -5  12   13.84    3.79
   7   5 -12   21.19    6.04
   7   5 -12   18.57    1.20
   7   5 -12   18.83    1.22
  -7   5  12   18.63    2.96
   6  -5 -12   98.64    3.56
  -6  -5  12   77.21    8.76
   6  -5 -12   93.16    8.39
   6   5 -12   89.18   10.29
  -6   5  12   97.26    6.71
   6   5 -12   96.33    3.75
   6   5 -12   95.42    3.72
   5  -5 -12   11.10    2.78
   5  -5 -12   11.32    0.75
  -5  -5  12   10.74    3.27
   5   5 -12    9.76    0.78
   5   5 -12    6.73    2.89
   5   5 -12   11.41    0.82
  -4  -5  12  284.09   16.59
   4  -5 -12  309.08   14.61
   4  -5 -12  276.99   12.44
   4  -5 -12  299.69    9.82
   4   5 -12  267.77   17.40
   4   5 -12  301.01    9.96
   4   5 -12  304.85    9.95
  -4   5  12  313.93    9.73
  -3  -5  12    2.52    1.30
   3  -5 -12    3.32    0.38
   3  -5 -12    2.62    0.96
   3  -5 -12    3.37    1.32
   3   5 -12    3.91    1.97
  -3   5  12    2.85    0.28
   3   5 -12    2.51    0.40
   3   5 -12    3.19    0.39
   2  -5 -12  191.74    9.33
   2  -5 -12  199.13    6.51
  -2  -5  12  190.27   11.94
   2  -5 -12  183.56    9.52
   2   5 -12  186.14    6.45
   2   5 -12  178.54    6.40
   2   5 -12  186.68   12.45
   1  -5 -12  141.13    4.83
   1  -5 -12  135.28    7.54
   1  -5 -12  128.55    7.78
   1   5 -12  128.15    4.66
   1   5 -12  131.60    4.66
  -1   5  12  132.99    4.53
   1   5 -12  124.54    9.46
   1   5 -12  125.73    9.13
   0  -5 -12    0.51    0.23
   0  -5 -12   -0.43    0.59
   0   5 -12   -0.05    0.06
   0   5  12    0.24    0.09
   0   5  12   -0.06    0.43
   0   5 -12    0.14    0.10
   0   5 -12   -0.61    0.57
   0   5 -12    0.28    0.73
  -1  -5 -12  117.62    8.92
  -1   5 -12  134.23    4.65
  -1   5 -12  135.49    4.76
  -1   5 -12  127.37    9.26
  -1   5 -12  130.15    9.60
   1   5  12  136.57    8.65
  -2  -5 -12  169.21   11.83
  -2   5 -12  182.14    6.12
   2   5  12  187.22   11.34
  -2   5 -12  178.86   11.46
  -2   5 -12  172.38   11.95
  -2   5 -12  172.46    6.29
   3  -5  12    1.72    1.23
  -3  -5 -12    1.65    1.24
   3   5  12    4.42    1.68
  -3   5 -12    3.64    2.04
  -3   5 -12    3.33    0.39
  -4  -5 -12  292.19   18.86
   4  -5  12  306.65   17.14
   4   5  12  327.57   18.37
  -4   5 -12  294.69   18.92
  -5  -5 -12    9.12    3.16
   5  -5  12    5.47    2.40
  -5   5 -12   10.42    3.65
   5   5  12   14.98    4.40
   5   5  12    9.40    0.89
  -6  -5 -12   94.35   10.84
   6  -5  12  103.56   10.08
   6  -5  12  102.91    4.19
   6   5  12  108.55    4.39
   6   5  12   90.27    9.97
  -6   5 -12   85.72   10.72
   7  -5  12   22.23    5.29
  -7  -5 -12   15.21    5.55
   7  -5  12   26.71    1.66
   7   5  12   27.32    1.80
  -7   5 -12   19.79    6.18
   8  -5  12    8.03    0.90
   8  -5  12    4.37    4.28
  -8  -5 -12    5.58    5.72
   8   5  12    8.10    0.97
   8   5  12    4.24    4.17
  -8   5 -12    5.83    4.14
  -8  -6  12   20.24    5.87
   8  -6 -12   33.56    1.62
   8  -6 -12   36.06    6.25
   8   6 -12   34.72    1.85
  -8   6  12   37.65    4.38
   8   6 -12   32.60    2.43
   8   6 -12   21.01    6.56
   7  -6 -12   35.83    5.37
   7  -6 -12   43.26    1.91
  -7  -6  12   45.43    7.29
   7   6 -12   45.15    2.16
  -7   6  12   42.58    4.31
   7   6 -12   41.70    2.11
   7   6 -12   39.09    9.22
  -6  -6  12   57.39    7.50
   6  -6 -12   66.10    2.64
   6  -6 -12   65.55    6.44
   6   6 -12   68.13    2.86
   6   6 -12   53.74    8.20
   6   6 -12   70.77    2.91
   5  -6 -12  106.15    3.88
   5  -6 -12  102.30    5.84
   5  -6 -12  106.23    9.43
  -5  -6  12  102.33    9.59
   5   6 -12  103.79   10.79
   5   6 -12  112.08    4.14
   5   6 -12  107.22    4.07
   4  -6 -12    5.50    0.49
   4  -6 -12    2.51    1.38
   4  -6 -12    7.94    1.55
  -4  -6  12    4.71    1.96
   4   6 -12    5.02    2.74
   4   6 -12    6.26    0.59
   4   6 -12    5.01    0.52
  -4   6  12    6.44    0.45
  -3  -6  12   89.73    8.15
   3  -6 -12   92.38    5.35
   3  -6 -12   97.35    5.97
   3  -6 -12  100.92    3.64
  -3   6  12   97.80    3.53
   3   6 -12   98.77    3.65
   3   6 -12  101.58    3.74
   3   6 -12   94.79    9.13
   2  -6 -12   45.78    3.73
   2  -6 -12   49.98    2.09
   2  -6 -12   46.92    3.82
  -2  -6  12   54.48    5.82
  -2   6  12   48.01    1.77
   2   6 -12   47.56    2.00
   2   6 -12   41.85    5.54
   2   6 -12   46.12    2.05
   1  -6 -12    2.41    0.89
   1  -6 -12    2.19    0.97
   1  -6 -12    1.65    0.36
   1   6 -12    2.69    1.56
   1   6 -12    1.83    0.32
  -1   6  12    1.60    0.27
   1   6 -12    2.17    1.29
   1   6 -12    1.66    0.33
   0  -6 -12  209.81    7.27
   0  -6 -12  191.16   11.18
   0   6 -12  217.00    7.04
   0   6 -12  206.99   12.85
   0   6 -12  192.82   12.33
   0   6 -12  210.60    7.01
   0   6  12  202.87   10.39
  -1  -6 -12    1.98    1.32
  -1   6 -12    1.88    1.15
   1   6  12    3.84    1.29
  -1   6 -12    3.33    0.48
  -1   6 -12    3.24    0.38
  -1   6 -12    2.39    1.44
  -2  -6 -12   57.42    6.54
  -2   6 -12   61.74    2.48
  -2   6 -12   49.60    6.18
  -2   6 -12   64.13    2.64
   2   6  12   69.29    6.32
  -2   6 -12   59.26    6.20
  -3  -6 -12   91.85    9.14
   3   6  12   97.18    8.46
  -3   6 -12   90.38    8.98
  -3   6 -12   94.84    3.56
   4  -6  12    2.76    1.75
  -4  -6 -12    4.50    2.36
  -4   6 -12    5.48    2.57
   4   6  12    3.16    0.55
   4   6  12    2.20    1.88
  -4   6 -12    2.42    0.39
  -5  -6 -12  109.74   11.38
   5  -6  12  105.33   11.41
   5   6  12  118.69    4.72
  -5   6 -12  118.34   13.59
   5   6  12  120.81   11.11
   6  -6  12   60.00    8.21
  -6  -6 -12   59.19   13.02
   6  -6  12   58.43    2.70
  -6   6 -12   34.57    7.80
   6   6  12   58.65    2.88
   7  -6  12   44.33    2.23
  -7  -6 -12   31.74    7.78
   7  -6  12   39.76    6.57
   7   6  12   38.95    7.98
  -7   6 -12   28.01    7.66
   7   6  12   41.48    2.39
   8  -6  12   32.38    1.87
   8  -6  12   26.47    6.34
  -8   6 -12   21.75    7.13
   8   6  12   34.19    3.13
  -8  -7  12   14.75    5.11
   8  -7 -12   26.76    5.57
   8  -7 -12   21.63    1.25
   8   7 -12   22.49    1.57
  -8   7  12   23.03    3.80
   8   7 -12   21.07    7.30
   8   7 -12   24.87    1.51
   7  -7 -12    2.69    0.43
   7  -7 -12    3.77    1.58
  -7  -7  12    2.79    2.68
   7   7 -12   -0.37    3.82
   7   7 -12    2.95    0.53
   7   7 -12    2.91    0.52
   6  -7 -12    1.67    0.87
   6  -7 -12    1.31    0.29
   6  -7 -12   -0.26    1.11
   6   7 -12    1.14    0.30
   6   7 -12    1.26    0.34
   6   7 -12    2.93    2.46
   5  -7 -12    7.26    0.58
   5  -7 -12    7.07    1.22
   5  -7 -12    6.72    1.51
  -5  -7  12    3.96    1.89
   5   7 -12    7.96    0.73
   5   7 -12    7.33    0.66
   5   7 -12    7.53    3.53
   4  -7 -12   26.76    1.33
  -4  -7  12   19.34    5.58
  -4   7  12   27.11    1.17
   4   7 -12   28.50    1.55
   4   7 -12   28.42    1.44
   4   7 -12   19.90    6.48
   3  -7 -12    1.11    0.26
   3   7 -12    0.50    0.22
   3   7 -12    0.67    0.20
   3   7 -12   -1.68    1.80
  -3   7  12    1.05    0.19
   2  -7 -12   53.69    3.75
   2  -7 -12   55.50    2.33
  -2   7  12   55.08    1.96
   2   7 -12   42.94    7.50
   2   7 -12   54.16    2.23
   2   7 -12   55.01    2.33
   1  -7 -12   -0.33    0.68
   1  -7 -12    0.37    0.61
   1  -7 -12    0.67    0.22
   1   7 -12    0.54    0.18
   1   7 -12    0.20    1.38
   1   7 -12    0.49    0.17
   1   7 -12   -0.95    0.91
   0  -7 -12    1.64    1.09
   0   7 -12    0.92    0.25
   0   7 -12    0.83    0.96
   0   7 -12    1.13    1.34
   0   7  12    1.42    0.98
   0   7 -12    1.22    0.26
  -1  -7 -12   -1.41    0.87
  -1   7 -12    1.06    0.26
  -1   7 -12    0.66    0.21
  -1   7 -12   -0.70    0.81
   1   7  12    0.31    0.76
  -2  -7 -12   39.86    5.46
  -2   7 -12   47.12    5.48
  -2   7 -12   46.74    2.00
  -2   7 -12   45.06    2.09
  -3  -7 -12    1.57    1.45
   3   7  12   -0.89    1.11
  -3   7 -12   -1.37    1.18
  -3   7 -12    1.47    1.29
  -3   7 -12    0.98    0.24
  -4  -7 -12   22.46    5.16
  -4   7 -12   35.16    5.93
  -4   7 -12   30.39    1.56
   4   7  12   32.90    1.79
  -5  -7 -12    4.78    2.77
   5  -7  12    3.04    2.03
  -5   7 -12    0.80    2.53
   6  -7  12    0.55    0.23
   6  -7  12    0.86    2.29
   6   7  12    0.39    0.24
  -6   7 -12    0.08    2.05
   6   7  12    0.88    1.98
   7  -7  12    1.62    2.43
   7  -7  12    1.26    0.39
  -7   7 -12    0.26    2.90
   7   7  12    3.95    0.81
   8  -7  12   15.37    1.17
   8   7  12   16.53    1.45
   7  -8 -12   23.77    1.24
  -7  -8  12   15.97    4.50
   7   8 -12   20.15    6.18
   7   8 -12   23.13    1.45
   7   8 -12   25.04    1.54
  -6  -8  12   23.08    5.42
   6  -8 -12   31.05    1.46
   6   8 -12   25.31    6.95
   6   8 -12   30.90    1.74
   6   8 -12   30.66    1.66
   5  -8 -12  145.60    4.97
  -5  -8  12  129.17   11.45
   5   8 -12  127.61   12.57
   5   8 -12  143.89    5.29
   5   8 -12  136.44    5.11
  -5   8  12  140.03    4.79
   4  -8 -12    1.01    0.28
  -4  -8  12    1.63    1.63
   4   8 -12    1.00    0.29
   4   8 -12    3.75    2.31
   4   8 -12    1.06    0.29
   3  -8 -12  200.70    6.81
  -3  -8  12  182.87   13.28
   3   8 -12  205.12    7.34
   3   8 -12  183.58   14.12
   3   8 -12  197.85    6.79
  -2  -8  12   18.54    4.03
   2  -8 -12   18.20    1.10
   2   8 -12   19.70    1.07
   2   8 -12   21.65    5.28
   2   8 -12   17.60    1.11
   1  -8 -12   75.33    5.26
   1  -8 -12   70.63    4.67
   1   8 -12   75.16    2.82
   1   8 -12   70.71    2.89
   1   8 -12   64.54    7.22
   1   8 -12   64.79    6.86
   0  -8 -12   60.74    5.34
   0   8 -12   54.99    2.35
   0   8 -12   56.42    6.40
   0   8 -12   50.47    5.99
   0   8 -12   53.53    2.25
  -1  -8 -12   63.94    6.26
  -1   8 -12   64.43    2.55
  -1   8 -12   51.90    6.84
  -1   8 -12   57.79    6.54
   1   8  12   57.52    5.19
  -1   8 -12   61.49    2.52
  -2  -8 -12   26.28    4.38
  -2   8 -12   19.72    4.60
  -2   8 -12   22.15    1.23
  -2   8 -12   22.31    1.29
  -2   8 -12   25.85    4.06
  -3  -8 -12  184.36   13.77
  -3   8 -12  191.08   12.60
  -3   8 -12  176.59   13.64
   3   8  12  191.70    6.72
  -3   8 -12  182.15    6.50
  -4  -8 -12   -2.08    1.32
  -4   8 -12    1.60    1.67
  -4   8 -12    0.89    0.43
   4   8  12    0.45    1.52
   4   8  12    1.17    0.32
   5  -8  12  162.18    5.81
  -5  -8 -12  144.16   13.56
   5   8  12  161.16    6.07
  -5   8 -12  125.75   12.96
   5   8  12  166.43   13.41
   6  -8  12   27.75    5.74
   6  -8  12   30.77    1.70
  -6   8 -12   29.68    7.51
   6   8  12   28.68    1.88
   7  -8  12   29.49    2.08
  -7   8 -12   28.69    7.21
   7   8  12   34.72    2.13
   7  -9 -12   83.28    3.15
  -7  -9  12   69.83    9.93
   7   9 -12   75.85    3.81
   7   9 -12   87.67    3.66
  -6  -9  12   19.78    5.59
   6  -9 -12   21.78    1.18
   6   9 -12   21.60    1.43
   6   9 -12   18.59    5.98
   6   9 -12   21.54    1.34
  -5  -9  12   29.83    6.39
   5  -9 -12   28.77    1.42
   5   9 -12   29.57    1.68
   5   9 -12   28.13    1.53
   4  -9 -12   46.40    1.94
  -4  -9  12   31.54    5.21
   4   9 -12   42.74    6.75
   4   9 -12   43.39    1.98
   4   9 -12   41.14    2.09
   3  -9 -12   63.02    2.60
  -3  -9  12   55.34    7.16
   3   9 -12   62.63    2.59
   3   9 -12   65.16    2.76
   3   9 -12   64.16    8.28
  -2  -9  12   27.65    4.68
   2   9 -12   36.71    1.79
   2   9 -12   34.72    1.62
   2   9 -12   37.37    5.74
   1   9 -12  258.83   16.47
   1   9 -12  248.70   15.39
   1   9 -12  259.77    8.90
   1   9 -12  268.52    8.75
   0  -9 -12    0.85    0.78
   0   9 -12   -1.03    0.98
   0   9 -12    0.19    0.15
   0   9 -12    0.02    0.10
  -1  -9 -12  276.05   14.82
  -1   9 -12  275.66    9.36
  -1   9 -12  282.00    9.33
  -1   9 -12  270.65   16.49
   1   9  12  276.21   13.44
  -1   9 -12  275.44   16.32
  -2  -9 -12   37.57    5.28
  -2   9 -12   40.88    1.84
  -2   9 -12   30.18    5.32
  -2   9 -12   38.60    1.85
  -2   9 -12   36.10    5.05
  -3  -9 -12   72.78    8.25
  -3   9 -12   82.45    8.95
   3   9  12   83.99    3.43
  -4  -9 -12   39.40    6.33
  -4   9 -12   48.66    7.58
  -4   9 -12   49.06    2.18
   4   9  12   46.34    2.38
  -4   9 -12   45.27    5.82
   4   9  12   51.37    6.53
   5  -9  12   23.44    1.39
   5   9  12   23.11    1.57
  -5   9 -12   24.67    5.94
   6  -9  12   24.62    1.43
   6   9  12   24.74    1.73
  -6   9 -12   19.14    5.52
   7  -9  12   81.77    3.35
  -6 -10  12    3.68    2.81
   6 -10 -12    0.63    0.26
   6  10 -12    0.50    0.22
   6  10 -12    2.20    3.44
   6  10 -12    0.87    0.32
   5 -10 -12   14.46    0.91
  -5 -10  12   14.47    6.84
   5  10 -12   14.15    1.11
   5  10 -12   15.98    1.06
   4 -10 -12   10.14    0.77
  -4 -10  12   10.24    3.41
   4  10 -12   10.65    0.80
   4  10 -12   11.22    0.93
   3  10 -12   41.83    6.89
   3  10 -12   37.83    1.93
   3  10 -12   35.89    1.74
   2  10 -12   12.85    0.95
   2  10 -12   11.72    0.80
   2  10 -12   13.89    4.62
   1  10 -12   28.49    1.52
   1  10 -12   27.61    5.67
   1  10 -12   22.76    4.68
   1  10 -12   28.40    1.39
   0 -10 -12    1.66    1.10
   0  10 -12    1.01    1.31
   0  10 -12    1.04    0.24
   0  10 -12    1.01    0.27
  -1 -10 -12   19.85    3.82
  -1  10 -12   15.39    3.96
   1  10  12   16.31    2.54
  -1  10 -12   19.91    1.17
  -1  10 -12   18.27    1.09
  -2 -10 -12    3.07    1.98
  -2  10 -12    7.50    0.67
   2  10  12    7.12    0.66
  -2  10 -12    8.01    0.69
  -2  10 -12    3.97    2.15
  -2  10 -12    5.16    2.39
   2  10  12    8.41    2.70
  -3  10 -12   38.00    1.86
  -3  10 -12   39.69    6.02
   3  10  12   38.36    2.00
  -3  10 -12   38.70    5.53
  -4  10 -12    9.06    0.75
   4  10  12    8.71    1.61
  -4  10 -12   12.16    4.38
   5 -10  12   17.17    1.10
  -5  10 -12   18.26    5.47
   5  10  12   15.17    1.27
  -5  10 -12   14.81    1.08
   6 -10  12    0.92    0.34
   6  10  12    0.17    0.27
  -6  10 -12   -4.75    2.68
  -5 -11  12   12.35    4.52
   5  11 -12   13.67    0.99
   5  11 -12    6.87    5.25
  -4 -11  12   58.49    7.79
   4  11 -12   57.96    2.52
   4  11 -12   49.93    7.95
   4  11 -12   59.03    2.73
  -3 -11  12    1.02    2.52
   3  11 -12    2.50    0.49
   3  11 -12    4.89    2.64
   2  11 -12   20.10    1.28
   2  11 -12   13.06    3.95
   2  11 -12   19.71    1.11
   1  11 -12   -0.81    1.61
   1  11 -12    0.16    0.12
   1  11 -12   -1.60    1.09
   1  11 -12    0.04    0.12
   0  11 -12    0.24    0.14
   0  11 -12    2.79    1.97
   0  11 -12   -0.25    0.98
  -1 -11 -12    1.15    1.00
  -1  11 -12    0.94    1.43
  -1  11 -12    0.71    1.47
   1  11  12    0.33    0.18
  -1  11 -12    0.69    0.23
   1  11  12    0.43    0.88
  -2  11 -12   19.42    1.20
  -2  11 -12   17.71    4.41
  -2  11 -12   12.41    3.94
   2  11  12   21.92    1.30
   3  11  12    1.77    0.41
  -3  11 -12    1.12    0.29
  -3  11 -12    1.30    1.77
   4 -11  12   55.84    2.48
  -4  11 -12   58.59    2.61
   4  11  12   61.29    2.87
   5 -11  12   14.63    0.98
  -5  11 -12   16.19    1.13
   5  11  12   15.19    1.26
  -5  11 -12    9.38    5.09
   4  12 -12    0.15    0.16
   3  12 -12   10.67    0.93
   3  12 -12   10.57    0.78
   2  12 -12   93.58    3.75
   2  12 -12   86.63    3.44
   1  12 -12    4.25    0.45
   1  12 -12    3.45    2.16
   1  12 -12    4.56    0.57
   0  12 -12  237.53    8.34
   0  12 -12  228.65   15.85
   0  12  12  263.41    8.37
   0  12 -12  248.68    8.61
   1  12  12    6.74    0.61
  -1  12 -12    9.04    3.42
  -1  12 -12    4.77    0.52
  -1  12 -12    6.69    0.65
  -2  12 -12  100.29    4.09
  -2  12 -12  102.49   10.31
   2  12  12  112.64    4.24
  -3  12 -12   10.95    0.88
   3  12  12   11.54    0.99
  -3  12 -12    8.38    3.48
   4 -12  12    0.57    0.29
  -4  12 -12    1.80    2.73
  -4  12 -12    1.19    0.30
   4  12  12    0.67    0.35
   3  13 -12   19.11    1.41
   3  13 -12   18.38    1.12
   2  13 -12   43.81    2.02
   2  13 -12   47.69    2.31
   2  13 -12   44.19    6.87
   1  13 -12   26.69    1.58
   1  13 -12   21.25    5.22
   1  13 -12   28.84    1.41
   0  13 -12   -1.00    1.74
   0  13 -12    1.18    0.30
   0  13 -12    0.53    0.25
   0  13  12    0.54    0.25
  -1  13 -12   25.81    1.51
   1  13  12   28.45    1.49
  -1  13 -12   24.07    1.32
  -1  13 -12   17.09    4.21
  -2  13 -12   24.70    6.01
  -2  13 -12   38.01    1.91
   2  13  12   36.38    1.91
  -3  13 -12   15.13    1.10
   3  13  12   15.50    1.19
   9   0 -13    7.76    0.58
   9   0 -13    6.61    1.00
   8   0 -13   -0.20    3.50
   8   0 -13   -0.14    0.09
   8   0 -13   -0.02    0.11
  -8   0  13   -1.79    1.20
  -7   0  13   48.66    6.19
   7   0 -13   51.07    2.01
   7   0 -13   49.60    2.26
  -6   0  13    0.92    1.13
   5   0 -13    8.92    0.68
   5   0 -13    7.73    0.52
  -4   0  13    0.15    0.66
   4   0 -13   -0.11    0.06
   3   0 -13   17.24    0.97
   3   0 -13   15.82    0.81
  -3   0  13   20.53    3.10
   2   0 -13   -0.15    0.44
   2   0 -13   -0.44    0.66
   2   0 -13    0.02    0.05
   2   0 -13    0.06    0.07
   1   0 -13   47.18    2.03
   1   0 -13   49.10    1.86
   1   0 -13   44.63    4.79
   1   0 -13   51.78    4.96
   0   0 -13    0.01    0.52
   0   0 -13   -0.12    0.46
   0   0 -13   -0.04    0.03
   0   0 -13    0.16    0.13
  -1   0 -13    7.61    0.67
  -1   0 -13    5.68    2.02
   1   0  13    4.06    1.63
   2   0  13    0.55    0.74
  -2   0 -13    0.28    0.87
  -3   0 -13    1.58    1.73
   3   0  13    4.31    1.86
  -4   0 -13   -1.22    0.78
   4   0  13    1.35    1.34
  -5   0 -13   28.37    6.35
   5   0  13   22.35    5.12
   6   0  13    0.00    0.15
   7   0  13    8.45    0.92
  -7   0 -13    5.36    3.52
   7   0  13    8.60    3.19
   8   0  13    0.27    0.27
  -8   0 -13    4.54    3.64
   8   0  13    1.22    3.07
  -9   0 -13    1.99    4.20
   9   0  13   12.39    5.19
   9   0  13    3.11    0.77
   9  -1 -13    1.45    0.37
   9   1 -13    2.54    0.50
   9   1 -13    1.88    0.35
   8  -1 -13    0.43    0.19
   8  -1 -13   -0.92    2.36
   8  -1 -13    0.10    0.13
   8   1 -13    0.77    0.24
   8   1 -13    0.25    0.17
  -8   1  13    0.94    1.44
   8   1 -13    2.43    3.13
   7  -1 -13    2.73    0.45
   7  -1 -13    2.33    2.34
   7  -1 -13    3.03    0.30
  -7  -1  13    5.20    2.18
   7   1 -13   -0.50    1.99
   7   1 -13    2.32    0.44
   7   1 -13    2.63    0.39
  -7   1  13    3.47    1.66
   6  -1 -13   -0.69    1.39
   6  -1 -13    0.46    0.11
   6  -1 -13    0.12    0.09
  -6  -1  13    0.80    0.91
   6   1 -13    0.05    0.11
   6   1 -13    0.53    0.18
  -6   1  13    0.90    1.19
   6   1 -13    1.74    1.55
   5  -1 -13   30.86    4.93
  -5  -1  13   35.36    4.72
   5  -1 -13   36.20    1.66
   5  -1 -13   34.35    1.39
   5   1 -13   35.31    1.53
   5   1 -13   35.65    1.68
   5   1 -13   27.07    5.75
  -5   1  13   39.10    4.55
   4  -1 -13   -0.27    1.06
   4  -1 -13    0.97    0.17
  -4  -1  13    0.75    0.93
   4  -1 -13    0.95    0.24
  -4   1  13    1.17    0.86
   4   1 -13    0.89    0.23
   4   1 -13    1.01    0.21
   4   1 -13    1.49    1.45
   3  -1 -13   12.46    0.78
   3  -1 -13   11.16    0.58
   3  -1 -13    6.93    2.09
  -3  -1  13    9.42    2.39
   3   1 -13   10.61    0.73
   3   1 -13   11.29    0.66
   3   1 -13   11.73    3.02
   2  -1 -13    4.82    1.59
   2  -1 -13    5.15    0.36
   2  -1 -13    5.70    0.49
   2  -1 -13    5.84    1.99
   2   1 -13    5.24    0.41
   2   1 -13    4.60    1.73
   2   1 -13    5.16    0.48
   1  -1 -13    1.84    0.33
   1  -1 -13    1.33    1.26
   1   1 -13    2.30    0.26
   1   1 -13    4.54    1.61
   1   1 -13    2.18    0.37
   1   1 -13    1.45    1.16
   0  -1 -13    1.23    0.30
   0  -1 -13    0.59    0.92
   0  -1 -13    1.11    0.85
   0   1 -13    1.06    0.27
   0   1 -13    0.81    0.89
   0   1 -13    1.24    0.24
   0   1 -13    0.89    0.86
  -1  -1 -13   29.66    1.60
  -1  -1 -13   30.74    4.18
  -1   1 -13   30.94    1.60
   1   1  13   34.23    4.26
  -1   1 -13   32.10    1.39
  -1   1 -13   30.55    4.24
   2  -1  13    3.20    1.57
  -2  -1 -13    2.07    1.31
  -2  -1 -13    4.69    0.69
   2   1  13    3.62    1.63
  -2   1 -13    4.80    2.09
  -2   1 -13    3.49    0.55
   3  -1  13   23.24    3.93
  -3  -1 -13   19.60    4.45
  -3   1 -13   18.95    4.18
   3   1  13   27.88    4.30
   4  -1  13   15.30    3.54
  -4  -1 -13    9.73    3.41
  -4   1 -13    9.57    3.09
   4   1  13   15.50    3.93
   5  -1  13    3.66    2.02
  -5  -1 -13    3.54    2.31
   5   1  13    3.49    2.03
  -5   1 -13    7.42    3.04
   6  -1  13    4.54    0.74
   6  -1  13    4.96    2.61
  -6  -1 -13    2.60    2.52
   6   1  13    2.54    2.43
   6   1  13    3.42    0.62
  -6   1 -13    4.70    3.45
  -7  -1 -13   20.35    5.92
   7  -1  13   22.05    1.56
   7  -1  13   17.55    5.28
   7   1  13   22.14    5.38
   7   1  13   20.81    1.56
  -8  -1 -13    0.45    3.30
   8  -1  13    1.05    2.91
   8  -1  13    0.70    0.32
   8   1  13    0.11    0.18
   8   1  13    1.36    2.79
  -8   1 -13   -2.22    3.14
   9  -1  13   -1.33    4.25
   9  -1  13    3.74    1.08
  -9  -1 -13   -0.20    4.57
  -9   1 -13    7.20    5.28
   9   1  13   -4.05    3.76
   9  -2 -13    1.17    0.35
   9   2 -13    1.82    0.41
   9   2 -13    1.51    0.34
   8  -2 -13   -2.09    2.42
   8  -2 -13    0.55    0.22
  -8  -2  13    1.59    2.28
  -8   2  13    1.32    1.93
   8   2 -13    0.98    0.28
   8   2 -13    5.43    3.62
   8   2 -13    0.70    0.24
   7  -2 -13    0.39    1.78
   7  -2 -13    1.31    0.32
  -7  -2  13    1.39    1.43
   7   2 -13    2.01    2.31
  -7   2  13    2.36    1.67
   7   2 -13    1.21    0.35
  -6  -2  13    6.54    2.73
   6  -2 -13    2.84    3.26
   6  -2 -13    5.70    0.53
   6   2 -13    4.65    0.52
   6   2 -13    4.59    0.45
   6   2 -13    3.26    3.21
   5  -2 -13    1.53    0.32
  -5  -2  13   -0.40    0.65
   5  -2 -13    0.99    1.55
   5   2 -13    1.31    0.31
   5   2 -13    1.43    0.28
   5   2 -13    0.89    1.85
  -5   2  13    0.99    1.00
   4  -2 -13   10.79    2.81
  -4  -2  13   11.77    3.00
   4  -2 -13   16.38    0.93
  -4   2  13   14.89    2.53
   4   2 -13   15.59    0.87
   4   2 -13   12.43    3.49
   4   2 -13   14.93    0.92
   3  -2 -13   10.39    2.59
   3  -2 -13   10.56    0.71
   3  -2 -13   10.90    2.36
  -3  -2  13    6.69    2.11
   3   2 -13   11.30    0.75
   3   2 -13   10.34    0.66
   3   2 -13    8.42    2.58
   2  -2 -13    2.77    1.12
   2  -2 -13    2.41    0.38
   2  -2 -13    1.38    0.96
   2   2 -13    3.12    0.32
   2   2 -13    2.13    1.22
   2   2 -13    2.57    0.40
   1  -2 -13   17.87    2.74
   1  -2 -13   17.65    2.77
   1  -2 -13   18.33    1.06
   1   2 -13   14.40    3.12
   1   2 -13   20.15    1.07
   1   2 -13   20.05    0.98
   1   2 -13   19.07    3.01
   0  -2 -13   28.14    1.45
   0  -2 -13   28.26    4.86
   0  -2 -13   22.35    3.18
   0   2 -13   27.56    1.38
   0   2 -13   29.68    3.98
   0   2 -13   27.19    1.24
   0   2 -13   25.09    3.52
  -1  -2 -13    2.23    0.40
  -1  -2 -13    1.05    1.35
  -1   2 -13    2.73    0.31
  -1   2 -13    3.17    0.51
  -1   2 -13    2.62    1.53
  -1   2 -13    2.25    1.22
   2  -2  13   21.52    3.59
  -2   2 -13   22.80    3.99
  -2   2 -13   23.43    1.38
  -3  -2 -13    2.95    1.92
   3  -2  13    5.86    2.23
  -3   2 -13    1.37    1.50
   3   2  13    2.82    1.76
  -4  -2 -13   -0.63    1.42
   4  -2  13    1.80    1.57
  -4   2 -13    2.07    1.65
   4   2  13    1.90    1.62
  -5  -2 -13   11.21    3.98
   5  -2  13   11.77    3.47
  -5   2 -13   15.53    4.96
   5   2  13   18.57    4.77
  -6  -2 -13   10.01    4.46
   6  -2  13    8.44    0.91
   6  -2  13    8.05    3.40
  -6   2 -13    6.54    3.78
   6   2  13    7.22    2.87
   6   2  13    9.25    0.95
   7  -2  13    5.17    2.86
  -7  -2 -13    6.26    3.60
   7  -2  13    0.85    0.35
  -7   2 -13    0.12    2.70
   7   2  13    0.76    0.36
   7   2  13    0.81    2.40
   8  -2  13    3.81    3.78
  -8  -2 -13    3.71    4.18
   8  -2  13    9.77    1.02
   8   2  13   11.29    1.13
   8   2  13   13.78    4.56
  -8   2 -13    7.34    4.77
  -8  -3  13   26.32    6.09
   8  -3 -13   19.30    1.21
   8  -3 -13   24.32    5.87
   8   3 -13   21.29    1.23
  -8   3  13   22.61    4.83
   8   3 -13   10.32    4.83
   8   3 -13   23.88    1.42
   7  -3 -13   -0.85    2.32
  -7  -3  13    0.32    1.33
   7  -3 -13    0.31    0.15
   7   3 -13   -4.16    2.26
   7   3 -13    0.04    0.12
   7   3 -13    0.07    0.12
  -7   3  13    1.65    1.20
   6  -3 -13   21.13    1.16
  -6  -3  13   16.87    4.06
   6  -3 -13   27.08    5.67
   6   3 -13   14.20    4.38
   6   3 -13   20.56    1.17
   6   3 -13   22.33    1.27
  -6   3  13   21.85    3.30
   5  -3 -13    0.65    0.21
   5  -3 -13    1.55    1.68
  -5  -3  13    0.55    1.04
  -5   3  13    1.17    0.88
   5   3 -13    0.85    0.24
   5   3 -13    0.77    0.21
   5   3 -13    3.73    2.23
  -4  -3  13    4.83    1.92
   4  -3 -13    5.44    0.51
   4  -3 -13    4.77    1.66
   4   3 -13    2.99    2.13
   4   3 -13    6.78    0.57
   4   3 -13    6.34    0.53
   3  -3 -13    1.00    0.95
   3  -3 -13    1.28    0.78
  -3  -3  13    1.20    1.00
   3  -3 -13    1.54    0.29
   3   3 -13    1.38    1.01
   3   3 -13    1.57    0.31
   3   3 -13    1.68    0.31
   2  -3 -13   33.92    1.56
   2  -3 -13   28.04    3.36
   2  -3 -13   29.59    4.49
   2   3 -13   31.16    1.46
   2   3 -13   36.31    4.89
   2   3 -13   36.22    1.57
   1  -3 -13    0.33    0.55
   1  -3 -13    0.04    0.11
   1   3 -13    1.14    0.96
   1   3 -13    0.04    0.06
   1   3 -13   -0.05    0.63
   0  -3 -13   49.90    5.02
   0  -3 -13   52.81    2.32
   0   3 -13   52.54    2.21
   0   3 -13   50.25    5.37
   0   3 -13   53.38    2.10
   0   3 -13   51.80    5.46
  -1  -3 -13    0.55    0.72
  -1  -3 -13    0.15    0.13
  -1   3 -13    0.15    0.10
  -1   3 -13   -0.11    0.49
  -1   3 -13    0.27    0.76
   1   3  13   -0.40    0.67
  -1   3 -13    0.06    0.10
  -2  -3 -13    1.51    1.25
  -2   3 -13    3.32    1.89
  -2   3 -13    1.75    0.37
   2   3  13    1.12    1.07
  -2   3 -13    2.68    0.31
  -3  -3 -13   -1.03    0.74
   3  -3  13    0.79    0.84
   3   3  13    0.25    1.20
  -3   3 -13   -0.28    1.09
   4  -3  13   29.75    5.70
  -4  -3 -13   19.61    4.96
   4   3  13   26.93    4.67
  -4   3 -13   23.68    5.69
  -5  -3 -13    2.72    2.11
   5  -3  13   -0.05    1.76
  -5   3 -13   -1.12    1.47
   5   3  13   -0.16    1.90
   6  -3  13   10.37    3.50
  -6  -3 -13    9.75    4.21
   6  -3  13   10.19    0.98
   6   3  13   12.09    3.69
  -6   3 -13   10.71    3.73
   6   3  13   10.69    1.02
  -7  -3 -13    4.82    3.20
   7  -3  13    2.54    2.43
   7   3  13    0.66    2.41
   8  -3  13    1.83    0.43
   8  -3  13    3.49    3.28
  -8  -3 -13    1.21    3.76
  -8   3 -13   -1.38    3.53
   8   3  13    3.40    0.66
  -8  -4  13   -0.54    2.23
   8  -4 -13    1.77    0.38
   8  -4 -13    5.29    4.16
  -8   4  13    0.49    1.33
   8   4 -13    2.27    4.18
   8   4 -13    2.81    0.56
   8   4 -13    2.70    0.43
  -7  -4  13   -0.01    1.35
   7  -4 -13    0.32    0.18
   7  -4 -13    1.32    2.36
   7   4 -13    0.12    0.12
   7   4 -13    0.29    0.14
   7   4 -13    0.87    2.91
  -7   4  13   -0.73    0.98
   6  -4 -13   20.65    4.65
   6  -4 -13   20.55    1.14
  -6  -4  13   23.61    5.09
  -6   4  13   19.16    3.13
   6   4 -13   17.17    5.21
   6   4 -13   20.34    1.23
   6   4 -13   22.11    1.27
   5  -4 -13    0.60    0.18
  -5  -4  13    0.80    0.97
   5  -4 -13    1.03    1.34
   5   4 -13    0.04    0.16
  -5   4  13    0.08    0.67
   5   4 -13    0.85    1.77
   5   4 -13    0.70    0.22
   4  -4 -13   46.89    5.11
   4  -4 -13   46.74    4.11
  -4  -4  13   44.65    5.55
   4  -4 -13   46.50    1.97
   4   4 -13   45.75    2.00
   4   4 -13   39.45    5.71
   4   4 -13   46.10    2.04
  -3  -4  13    9.79    2.95
   3  -4 -13    6.99    1.68
   3  -4 -13    4.15    1.74
   3  -4 -13    8.94    0.66
   3   4 -13   10.47    3.18
   3   4 -13    9.56    0.67
   3   4 -13    8.40    0.65
   2  -4 -13    9.67    2.15
   2  -4 -13   10.84    2.54
   2  -4 -13   12.14    0.80
  -2  -4  13    9.55    2.61
  -2   4  13   10.95    0.64
   2   4 -13    7.11    2.32
   2   4 -13   11.79    0.77
   2   4 -13   11.16    0.73
   1  -4 -13    9.44    0.72
   1  -4 -13    7.90    2.01
   1  -4 -13    8.22    2.04
   1   4 -13    9.85    0.67
   1   4 -13    6.06    2.23
  -1   4  13    9.49    0.57
   1   4 -13    7.73    2.41
   1   4 -13    9.41    0.67
   0  -4 -13   10.99    2.67
   0  -4 -13   12.00    0.90
   0   4 -13   12.66    0.79
   0   4 -13   15.90    3.68
   0   4 -13   12.16    3.23
   0   4 -13   14.05    0.86
  -1  -4 -13    1.52    0.37
  -1  -4 -13    2.72    1.54
  -1   4 -13    2.87    1.33
  -1   4 -13    4.49    1.77
  -1   4 -13    1.84    0.32
   1   4  13    1.57    0.96
  -1   4 -13    1.14    0.28
  -2  -4 -13   24.66    4.03
  -2   4 -13   23.20    1.19
  -2   4 -13   22.39    1.34
   2   4  13   25.65    3.84
  -2   4 -13   18.29    4.10
  -3  -4 -13    5.68    2.40
   3  -4  13    6.02    2.40
  -3   4 -13    7.46    0.60
  -3   4 -13    5.78    2.28
   3   4  13    8.99    2.89
   4  -4  13    7.01    2.35
  -4  -4 -13    9.08    3.57
  -4   4 -13    9.95    3.25
   4   4  13    5.51    2.46
  -5  -4 -13    7.39    3.81
   5  -4  13    5.19    2.60
   5   4  13    8.74    3.45
  -5   4 -13   10.60    3.84
   5   4  13    9.44    0.89
   6  -4  13   -0.18    1.59
   6  -4  13    3.80    0.67
  -6  -4 -13    3.78    2.80
   6   4  13    2.35    2.50
   6   4  13    4.17    0.73
  -6   4 -13    0.73    3.01
  -7  -4 -13    7.69    3.87
   7  -4  13   -0.56    2.12
   7  -4  13    0.84    0.36
  -7   4 -13   -1.25    3.03
   8  -4  13    9.95    1.00
   8  -4  13    0.36    3.63
  -8  -4 -13    2.67    3.88
  -8   4 -13    7.51    5.07
   8   4  13    9.69    1.09
   8   4  13    7.29    3.17
  -8  -5  13   -2.91    2.66
   8  -5 -13    1.90    0.37
   8  -5 -13    1.49    3.52
   8   5 -13    3.66    4.24
   8   5 -13    1.18    0.49
  -8   5  13    1.15    1.49
   8   5 -13    2.32    0.46
   7  -5 -13    0.83    0.23
  -7  -5  13   -2.14    1.69
   7  -5 -13   -0.37    2.34
  -7   5  13    2.35    1.80
   7   5 -13    2.48    2.79
   7   5 -13    1.15    0.31
   7   5 -13    0.77    0.25
   6  -5 -13    5.25    2.14
  -6  -5  13    1.68    1.89
   6  -5 -13    2.57    0.41
   6   5 -13    3.23    2.88
   6   5 -13    2.75    0.47
  -6   5  13    2.52    1.18
   6   5 -13    2.94    0.48
   5  -5 -13   -1.02    1.18
  -5  -5  13   -0.07    1.81
   5   5 -13   -1.44    1.89
   5   5 -13    1.39    0.51
   4  -5 -13    2.13    0.35
  -4  -5  13    1.12    1.29
   4  -5 -13    2.21    1.50
   4  -5 -13    0.36    0.70
   4   5 -13    1.55    0.33
   4   5 -13    2.43    0.40
   4   5 -13   -2.20    1.70
   3  -5 -13   12.65    2.69
   3  -5 -13   11.01    0.77
   3  -5 -13    9.37    1.60
  -3  -5  13    8.62    2.75
   3   5 -13    8.45    2.90
  -3   5  13   11.66    0.66
   3   5 -13   11.50    0.79
   3   5 -13   11.14    0.78
   2  -5 -13    6.00    1.67
   2  -5 -13    8.11    0.65
  -2  -5  13    6.85    2.34
   2  -5 -13    7.55    1.86
   2   5 -13    7.54    0.61
  -2   5  13    7.66    0.49
   2   5 -13    6.35    2.55
   2   5 -13    6.88    0.58
   1  -5 -13    8.72    2.15
   1  -5 -13    9.85    2.24
   1  -5 -13   10.54    0.79
   1   5 -13    8.52    2.75
   1   5 -13    9.68    0.69
   1   5 -13    8.96    2.76
   1   5 -13   10.14    0.70
  -1   5  13    8.88    0.56
   0  -5 -13    8.23    2.33
   0  -5 -13   11.02    0.85
   0   5 -13   10.47    0.72
   0   5 -13   11.78    3.20
   0   5 -13   10.38    0.74
   0   5 -13   10.52    2.77
  -1  -5 -13   21.29    4.35
  -1   5 -13   22.17    1.17
   1   5  13   25.43    3.50
  -1   5 -13   23.32    3.79
  -1   5 -13   22.28    3.72
  -1   5 -13   23.48    1.28
  -2  -5 -13    1.38    1.38
  -2   5 -13    1.26    0.33
  -2   5 -13    0.37    1.09
   2   5  13    1.71    1.08
  -2   5 -13    0.59    0.18
  -2   5 -13    0.82    0.92
  -3  -5 -13   14.18    3.87
  -3   5 -13    4.51    2.33
  -3   5 -13    8.78    0.67
   3   5  13   11.69    3.20
  -4  -5 -13   10.33    3.46
   4  -5  13   11.31    3.22
  -4   5 -13   13.72    3.95
   4   5  13   11.38    3.41
  -5  -5 -13    4.16    2.11
   5  -5  13    0.97    1.60
   5   5  13    2.91    0.59
  -5   5 -13    0.02    1.99
   5   5  13    5.14    2.56
  -6  -5 -13    5.93    3.92
   6  -5  13   12.95    4.23
   6  -5  13   11.49    1.03
  -6   5 -13   12.59    4.79
   6   5  13    9.61    0.99
   7  -5  13    8.34    3.29
   7  -5  13    9.33    0.97
  -7  -5 -13    9.39    5.19
  -7   5 -13    0.06    3.52
   7   5  13   10.49    1.08
   7   5  13   14.28    4.85
   8  -5  13    0.37    0.29
  -8  -5 -13    2.71    4.37
   8   5  13    0.24    0.41
   8   5  13   -0.91    3.06
  -8   5 -13   -0.79    3.04
   8  -6 -13    0.23    0.16
  -8  -6  13   -0.75    2.71
   8  -6 -13    0.08    2.45
   8   6 -13    0.03    0.16
   8   6 -13    0.09    0.20
  -8   6  13    0.47    1.43
   8   6 -13   -9.37    4.34
   7  -6 -13    7.43    3.05
  -7  -6  13   16.10    7.20
   7  -6 -13   10.95    0.93
   7   6 -13    6.21    6.01
  -7   6  13   11.34    2.43
   7   6 -13    9.65    0.85
   7   6 -13   11.16    0.91
   6  -6 -13    0.73    1.87
   6  -6 -13    0.15    0.17
  -6  -6  13    2.67    1.98
   6   6 -13    0.56    0.20
   6   6 -13    1.90    2.89
   5  -6 -13    4.47    1.50
   5  -6 -13    7.29    2.07
   5  -6 -13    7.04    0.57
  -5  -6  13    9.29    3.07
   5   6 -13    6.78    0.64
   5   6 -13    1.58    2.58
   5   6 -13    7.29    0.65
  -4  -6  13    1.43    1.45
   4  -6 -13   -0.26    0.46
   4  -6 -13    0.33    0.16
   4  -6 -13    0.29    1.20
   4   6 -13    0.78    1.36
   4   6 -13    0.27    0.13
   4   6 -13    0.47    0.18
   3  -6 -13   10.09    2.31
   3  -6 -13    7.62    0.62
  -3  -6  13    6.54    2.84
   3  -6 -13    6.85    1.61
   3   6 -13    6.63    0.59
   3   6 -13    4.27    1.90
   3   6 -13    7.81    0.65
  -3   6  13    7.07    0.47
   2  -6 -13    0.37    0.17
  -2  -6  13    0.95    1.14
   2  -6 -13    0.69    0.79
   2  -6 -13    1.18    0.83
   2   6 -13    0.20    0.14
   2   6 -13    0.44    0.15
  -2   6  13    0.41    0.13
   2   6 -13    2.03    1.48
   1  -6 -13   14.33    2.51
   1  -6 -13   18.95    2.42
   1  -6 -13   17.64    1.12
   1   6 -13   20.18    3.50
   1   6 -13   19.91    1.06
   1   6 -13   17.92    3.96
  -1   6  13   19.29    0.88
   1   6 -13   17.79    1.05
   0  -6 -13    9.79    0.84
   0  -6 -13   15.32    3.32
   0   6 -13   10.85    0.74
   0   6 -13    7.05    2.33
   0   6 -13    9.25    0.70
   0   6 -13    9.75    2.78
  -1  -6 -13    6.61    2.25
   1   6  13    3.84    1.56
  -1   6 -13    1.13    1.39
  -1   6 -13    5.20    3.08
  -1   6 -13    4.40    0.45
  -1   6 -13    4.14    0.57
  -2  -6 -13    0.70    0.93
  -2   6 -13    1.12    1.21
  -2   6 -13    2.00    1.45
  -2   6 -13    0.73    0.27
  -2   6 -13    0.49    0.15
  -3  -6 -13   15.17    4.20
   3   6  13   19.29    4.20
  -3   6 -13   18.16    1.05
  -3   6 -13   14.27    4.00
  -3   6 -13   17.39    4.13
   4  -6  13   -0.16    1.43
  -4  -6 -13    2.84    1.87
   4   6  13    0.81    1.43
  -4   6 -13    0.05    1.50
  -5  -6 -13   12.31    3.97
   5  -6  13   16.07    4.29
   5   6  13   11.22    1.08
  -5   6 -13   12.33    4.06
  -6  -6 -13    1.89    2.49
   6  -6  13    0.15    1.99
   6  -6  13    0.64    0.28
  -6   6 -13   -1.60    1.98
   6   6  13    0.92    1.61
   6   6  13    0.22    0.21
  -7  -6 -13    1.54    3.49
   7  -6  13    4.74    3.03
   7  -6  13    1.66    0.44
   7   6  13    0.90    0.34
   7   6  13    3.57    3.19
  -7   6 -13    1.19    2.44
   8  -6  13   -0.32    0.24
   8   6  13   -0.19    0.23
   7  -7 -13    4.15    1.98
  -7  -7  13    1.49    3.29
   7  -7 -13    2.68    0.44
   7   7 -13    3.23    0.52
   7   7 -13    5.36    4.00
   7   7 -13    2.42    0.49
   6  -7 -13    1.90    0.33
  -6  -7  13    4.95    2.23
   6  -7 -13    1.34    1.34
   6   7 -13    2.50    3.36
   6   7 -13    1.46    0.37
   6   7 -13    2.46    0.48
   5  -7 -13   28.11    2.40
   5  -7 -13   32.43    1.52
  -5  -7  13   31.00    6.14
   5  -7 -13   32.11    3.26
   5   7 -13   29.63    1.59
   5   7 -13   26.15    6.09
   5   7 -13   30.00    1.64
  -4  -7  13   -0.17    1.70
   4  -7 -13    0.50    0.19
   4  -7 -13    1.71    0.67
   4  -7 -13   -0.27    0.82
  -4   7  13    0.92    0.19
   4   7 -13    0.22    0.19
   4   7 -13    3.00    2.07
   4   7 -13    0.73    0.23
   3  -7 -13   20.61    2.15
   3  -7 -13   21.47    1.20
  -3  -7  13   15.75    3.95
   3  -7 -13   22.23    2.34
   3   7 -13   22.08    1.20
   3   7 -13   13.42    4.22
  -3   7  13   22.74    0.99
   3   7 -13   22.56    1.36
  -2  -7  13    6.58    2.47
   2  -7 -13    9.87    1.96
   2  -7 -13    7.15    0.65
   2   7 -13    5.61    2.67
   2   7 -13    7.89    0.66
   2   7 -13    7.77    0.62
  -2   7  13    7.32    0.46
   1  -7 -13    2.97    1.02
   1  -7 -13    1.44    0.93
   1  -7 -13    2.55    0.47
   1   7 -13    1.44    0.28
  -1   7  13    1.67    0.24
   1   7 -13    1.66    1.43
   1   7 -13    4.75    2.06
   1   7 -13    1.52    0.30
   0  -7 -13   -1.16    0.76
   0   7 -13    0.30    0.17
   0   7 -13    1.82    1.15
   0   7 -13    0.28    0.14
   0   7 -13    0.60    1.00
  -1   7 -13   23.81    4.12
  -1   7 -13   24.22    1.31
  -1   7 -13   22.74    1.24
  -1   7 -13   23.55    4.00
  -2  -7 -13    1.88    1.82
  -2   7 -13    0.15    1.03
  -2   7 -13    0.58    1.20
  -2   7 -13    0.93    0.25
  -2   7 -13    1.27    0.30
  -3  -7 -13   12.98    3.78
  -3   7 -13   13.91    3.78
  -3   7 -13   17.28    4.17
  -3   7 -13   14.33    0.94
  -4   7 -13    0.27    1.68
   4   7  13    5.03    0.61
  -4   7 -13    3.30    0.52
  -5  -7 -13    5.32    2.81
  -5   7 -13    0.89    2.18
   5   7  13    6.48    2.53
   5   7  13    4.51    0.76
   6  -7  13    3.22    4.05
   6  -7  13    4.12    0.68
  -6  -7 -13    3.58    3.56
   6   7  13    4.27    3.14
   6   7  13    3.67    0.72
   7  -7  13    2.27    4.77
  -7   7 -13   -1.46    6.12
   7  -8 -13    9.82    0.75
  -7  -8  13    9.79    3.92
   7   8 -13    9.26    1.45
   7   8 -13    6.33    4.98
  -6  -8  13    5.18    2.57
   6  -8 -13    2.41    0.43
   6   8 -13    3.39    0.58
   6   8 -13    4.66    3.73
   6   8 -13    3.50    0.55
  -5  -8  13   -0.79    1.52
   5  -8 -13    0.63    0.23
   5   8 -13   -1.87    2.16
   5   8 -13    0.73    0.25
   5   8 -13    0.99    0.29
   4  -8 -13    4.33    0.49
  -4  -8  13    0.68    1.50
   4   8 -13    4.55    0.54
   4   8 -13    5.06    0.53
   4   8 -13    6.26    3.00
   3  -8 -13   15.04    0.97
  -3  -8  13   13.26    3.63
   3   8 -13   14.99    0.94
   3   8 -13    7.83    3.21
   3   8 -13   12.09    0.93
   2  -8 -13    2.10    0.41
   2   8 -13    1.29    1.98
   2   8 -13    2.80    0.42
   1  -8 -13   21.64    2.75
   1  -8 -13   21.24    2.39
   1   8 -13   21.66    1.24
  -1   8  13   20.70    0.95
   1   8 -13   24.91    5.13
   1   8 -13   21.17    1.16
   1   8 -13   19.65    4.21
   0  -8 -13   14.72    3.11
   0   8 -13   15.13    0.94
   0   8 -13   13.25    3.70
   0   8 -13   16.03    1.00
   0   8 -13   12.23    3.37
  -1  -8 -13    8.26    2.68
  -1   8 -13    6.67    0.63
  -1   8 -13    5.77    2.37
  -1   8 -13    6.31    2.75
  -1   8 -13    7.86    0.65
  -2  -8 -13   12.75    3.52
  -2   8 -13   15.69    4.31
  -2   8 -13   19.26    1.12
  -2   8 -13   20.48    1.22
  -2   8 -13   12.30    3.47
  -3  -8 -13    2.10    1.96
  -3   8 -13    2.75    0.64
  -3   8 -13    3.18    2.31
  -3   8 -13    4.57    2.52
   3   8  13    1.70    1.59
  -4  -8 -13    6.26    3.05
  -4   8 -13    2.08    0.39
  -4   8 -13    2.21    2.79
   4   8  13    2.26    0.48
   4   8  13    1.61    1.94
  -5   8 -13    3.28    2.48
   5   8  13    5.60    3.32
   5   8  13    6.05    0.92
   6  -8  13   12.29    1.76
   6   8  13    9.67    1.00
  -6   8 -13    8.93    4.97
   7  -8  13    3.39    0.59
   7   8  13    3.18    0.73
  -7   8 -13    6.01    5.54
  -6  -9  13    1.50    2.59
   6  -9 -13    2.22    0.39
   6   9 -13    1.34    0.34
   6   9 -13    1.12    0.36
   6   9 -13    3.15    4.08
  -5  -9  13   -0.75    1.23
   5  -9 -13    0.12    0.18
   5   9 -13    0.09    0.12
   5   9 -13   -2.26    2.60
   5   9 -13    0.14    0.16
   4  -9 -13    0.63    0.24
  -4  -9  13   -2.11    1.27
   4   9 -13    0.76    0.23
   4   9 -13    0.25    0.22
   4   9 -13   -1.72    1.63
  -3  -9  13   -1.19    1.50
   3  -9 -13    0.39    0.18
   3   9 -13   -0.11    1.62
   3   9 -13    0.55    0.19
   3   9 -13    0.63    0.24
   2   9 -13   24.90    1.31
   2   9 -13   22.64    5.24
   2   9 -13   25.37    1.43
   1  -9 -13   -0.43    0.54
   1   9 -13   -2.21    1.40
   1   9 -13    0.87    0.25
   1   9 -13    0.50    0.21
   1   9 -13   -0.77    0.89
   0  -9 -13    3.17    1.34
   0   9 -13    3.50    0.58
   0   9 -13    1.13    1.40
   0   9 -13    4.98    2.13
   0   9 -13    3.02    0.46
  -1  -9 -13   -0.99    1.24
   1   9  13    2.53    1.20
  -1   9 -13    1.98    0.39
  -1   9 -13    2.09    0.40
  -1   9 -13    4.46    2.49
  -1   9 -13    1.08    1.37
  -2  -9 -13    0.76    1.84
  -2   9 -13    3.30    0.53
  -2   9 -13    3.63    0.44
  -2   9 -13    2.98    1.73
  -3  -9 -13    4.40    2.37
  -3   9 -13    2.74    0.50
  -3   9 -13    4.21    2.12
   3   9  13    2.46    1.74
  -3   9 -13    2.34    2.36
   3   9  13    3.02    0.52
  -4   9 -13   10.99    0.87
   4   9  13   11.68    1.09
  -4   9 -13   12.33    3.59
   5  -9  13    0.63    0.31
  -5   9 -13    1.27    2.36
   5   9  13    0.78    0.33
   6  -9  13    4.56    0.73
   6   9  13    4.98    0.85
  -6   9 -13    8.42    4.57
  -6 -10  13    6.13    3.27
   6 -10 -13    3.62    0.60
   6  10 -13    2.54    4.39
   6  10 -13    3.81    0.63
   6  10 -13    2.33    0.50
  -5 -10  13   -0.01    2.10
   5 -10 -13   -0.33    0.19
   5  10 -13   -0.33    3.25
   5  10 -13   -0.20    0.14
   5  10 -13    0.26    0.14
   4 -10 -13   15.77    1.01
  -4 -10  13   11.35    4.02
   4  10 -13   15.49    1.13
   4  10 -13   14.45    1.01
  -3 -10  13    1.70    2.21
   3  10 -13    1.42    0.37
   3  10 -13    2.40    0.46
   2  10 -13    2.56    0.43
   1  10 -13    0.27    1.26
   1  10 -13    3.88    0.48
   1  10 -13    3.17    0.47
   0 -10 -13    0.03    0.53
   0 -10 -13    0.43    1.07
   0  10 -13   -2.23    1.41
   0  10 -13   -0.04    0.12
   0  10 -13    0.25    0.16
  -1  10 -13    1.74    1.65
  -1  10 -13    5.45    0.55
   1  10  13    4.28    1.61
  -1  10 -13    4.94    0.55
  -2  10 -13   17.11    4.87
   2  10  13   19.91    5.02
  -2  10 -13   14.09    1.01
  -2  10 -13   16.15    1.06
  -2  10 -13   15.48    4.03
   2  10  13   17.40    1.14
  -3  10 -13    0.31    1.90
   3  10  13    2.74    0.54
  -3  10 -13    2.40    0.46
  -3  10 -13    1.03    1.46
  -4  10 -13    0.94    0.25
   4  10  13    1.20    0.34
  -4  10 -13    0.59    2.20
   5 -10  13    1.28    0.39
   5  10  13    1.09    0.42
  -5  10 -13   -2.02    1.97
  -5  10 -13    1.62    0.37
   6 -10  13    2.42    0.52
   6  10  13    2.19    0.56
   5  11 -13    7.54    0.82
   5  11 -13    6.43    0.69
  -4 -11  13   -0.98    1.78
   4  11 -13    2.18    2.78
  -3 -11  13    1.27    2.13
   3  11 -13   -1.56    2.38
   3  11 -13    2.77    0.46
   2  11 -13    5.14    0.62
   2  11 -13   12.17    3.28
   2  11 -13    5.58    0.54
   1  11 -13    4.04    2.75
   1  11 -13    4.88    0.57
   1  11 -13    4.77    0.48
   1  11 -13    3.37    1.91
   0  11 -13    9.58    3.55
   0  11 -13    7.80    0.67
   0  11 -13    6.08    2.63
   0  11 -13    8.36    0.75
  -1  11 -13   13.33    4.25
  -1  11 -13   10.24    0.85
  -1  11 -13   15.38    3.87
   1  11  13   11.42    0.84
  -1  11 -13   10.81    0.84
  -2  11 -13    0.62    0.24
  -2  11 -13    1.12    0.28
   2  11  13    0.73    0.23
   3  11  13    4.74    0.73
  -3  11 -13    4.13    0.60
  -3  11 -13    3.95    2.75
  -4  11 -13    4.58    3.35
   4  11  13    4.24    0.73
  -4  11 -13    3.73    0.58
   5 -11  13    0.34    0.26
  -5  11 -13    0.48    0.26
   5  11  13    0.13    0.28
   4  12 -13    2.65    0.46
   4  12 -13    1.56    0.47
   3  12 -13    2.70    0.44
   3  12 -13    3.54    0.59
   2  12 -13    0.50    0.23
   2  12 -13   -2.10    1.77
   2  12 -13    0.77    0.23
   1  12 -13    4.74    2.47
   1  12 -13    3.78    0.53
   0  12 -13    0.10    0.19
   0  12 -13    0.52    0.21
   0  12 -13   -1.13    1.72
   0  12  13    1.27    0.31
  -1  12 -13    0.21    0.18
   1  12  13    0.22    0.20
  -1  12 -13   -0.79    1.98
  -1  12 -13    0.55    0.23
  -2  12 -13    4.98    0.60
  -2  12 -13    7.29    2.82
   2  12  13    7.38    0.72
  -3  12 -13    5.65    4.04
  -3  12 -13    8.82    0.77
   4 -12  13    1.21    0.39
  -4  12 -13    1.48    0.41
   4  12  13    1.08    0.43
   2  13 -13    0.32    0.31
   2  13 -13    0.17    0.16
   1  13 -13    2.98    2.37
   1  13 -13    2.45    0.48
   1  13 -13    2.28    0.38
   0  13 -13    2.47    2.35
   0  13 -13    0.10    0.20
   0  13 -13    0.32    0.19
   0  13  13    0.82    0.29
  -1  13 -13    1.60    0.41
   1  13  13    3.12    0.56
  -1  13 -13    0.53    2.35
   2  13  13    0.95    0.34
  -2  13 -13    0.30    0.25
   8   0 -14   23.16    6.24
   8   0 -14   35.11    1.81
   8   0 -14   35.67    1.52
  -8   0  14   32.05    5.56
   7   0 -14    2.59    2.48
   6   0 -14  122.60    4.55
  -6   0  14  121.96    9.75
   6   0 -14  121.51    4.24
  -5   0  14   -0.47    0.88
   5   0 -14    0.13    0.12
   4   0 -14   31.35    1.54
   4   0 -14   32.09    1.36
  -4   0  14   33.36    4.27
   3   0 -14   -0.47    0.40
   3   0 -14   -0.18    0.08
   3   0 -14   -0.02    0.06
   2   0 -14   80.63    3.47
   2   0 -14   87.46    3.24
   2   0 -14   85.68    7.25
   2   0 -14   80.52    6.62
   1   0 -14    0.34    0.76
   1   0 -14    0.07    0.07
   0   0 -14    1.35    0.92
   0   0 -14    0.28    0.15
   0   0 -14    0.69    0.66
  -1   0 -14    1.74    1.41
  -2   0 -14   86.83    3.55
  -2   0 -14   75.41    7.68
   2   0  14   83.12    7.40
  -3   0 -14   -1.19    0.87
   3   0  14    0.06    0.77
   4   0  14   29.72    4.74
  -4   0 -14   24.64    5.75
   5   0  14    1.08    1.40
  -5   0 -14   -0.18    1.48
   6   0  14  106.42   10.69
   6   0  14  119.03    4.73
  -6   0 -14   90.06   10.99
  -7   0 -14   -3.44    2.68
   7   0  14    0.49    0.27
  -8   0 -14   21.83    7.76
   8   0  14   29.84    7.31
   8   0  14   31.22    2.08
   8  -1 -14   16.05    5.31
  -8  -1  14    6.61    2.76
   8  -1 -14   11.17    0.89
  -8   1  14    7.79    3.27
   8   1 -14    1.71    4.05
   8   1 -14   12.13    0.77
   8   1 -14   11.50    0.92
   7  -1 -14   36.53    1.78
   7  -1 -14   30.18    6.77
  -7  -1  14   32.24    5.22
   7  -1 -14   36.40    1.46
   7   1 -14   35.63    1.81
   7   1 -14   33.99    1.58
  -7   1  14   33.27    5.10
   7   1 -14   41.16    8.54
   6  -1 -14    7.01    3.37
   6  -1 -14    4.22    0.43
   6  -1 -14    3.92    0.46
  -6  -1  14    5.57    2.63
   6   1 -14    4.66    2.74
  -6   1  14    2.13    1.20
   6   1 -14    3.36    0.50
   6   1 -14    4.01    0.40
  -5  -1  14   49.04    5.74
   5  -1 -14   49.77    1.87
   5  -1 -14   51.65    6.68
   5  -1 -14   47.53    2.14
  -5   1  14   47.99    5.28
   5   1 -14   46.99    6.47
   5   1 -14   50.85    2.21
   5   1 -14   52.07    2.04
  -4  -1  14   18.11    3.18
   4  -1 -14   15.09    3.74
   4  -1 -14   19.22    1.08
   4  -1 -14   17.87    0.84
   4   1 -14   18.31    4.43
   4   1 -14   18.56    0.96
   4   1 -14   19.42    1.10
  -4   1  14   19.93    3.16
  -3  -1  14   28.45    3.96
   3  -1 -14   21.66    1.18
   3  -1 -14   21.75    0.96
   3  -1 -14   22.65    3.75
   3   1 -14   20.73    3.64
   3   1 -14   21.59    1.05
   3   1 -14   22.29    1.20
   2  -1 -14   11.25    2.95
   2  -1 -14   10.09    0.57
   2  -1 -14   11.99    2.77
   2  -1 -14   10.35    0.74
   2   1 -14   12.11    2.98
   2   1 -14    8.76    2.65
   2   1 -14   10.54    0.64
   2   1 -14   10.79    0.75
   1  -1 -14   50.47    5.07
   1  -1 -14   46.73    2.09
   1   1 -14   51.83    5.49
   1   1 -14   47.12    2.07
   1   1 -14   48.32    1.91
   1   1 -14   45.10    4.94
   0  -1 -14   75.35    6.41
   0  -1 -14   72.09    3.02
   0  -1 -14   75.50    6.59
   0   1 -14   71.15    6.50
   0   1 -14   80.34    3.05
   0   1 -14   75.45    2.77
   0   1 -14   70.03    6.54
  -1  -1 -14   48.70    2.23
  -1  -1 -14   40.38    6.01
  -1   1 -14   50.78    2.22
  -1   1 -14   42.76    5.30
   1   1  14   34.95    5.94
  -2  -1 -14    8.70    0.81
  -2  -1 -14    5.98    2.90
   2  -1  14    4.75    1.95
  -2   1 -14    6.60    0.69
   2   1  14    6.98    3.39
  -2   1 -14    6.42    2.53
  -3  -1 -14   28.75    4.94
   3  -1  14   26.64    4.36
  -3   1 -14   17.73    4.23
   3   1  14   28.45    4.36
  -4  -1 -14   22.72    5.66
   4  -1  14   22.00    4.98
   4   1  14   22.52    4.82
  -4   1 -14   17.51    5.07
   5  -1  14   69.78    7.69
  -5  -1 -14   56.09    8.15
  -5   1 -14   56.90    8.32
   5   1  14   47.73    6.90
   6  -1  14    1.70    0.49
   6  -1  14    0.14    1.92
  -6  -1 -14   -1.86    2.14
   6   1  14    0.49    1.94
  -6   1 -14    4.03    2.96
   6   1  14    1.70    0.44
   7  -1  14   42.77    6.87
  -7  -1 -14   26.78    6.91
   7  -1  14   41.27    2.37
  -7   1 -14   37.09    8.26
   7   1  14   46.11    7.41
   7   1  14   41.27    2.38
   8  -1  14    4.59    3.67
  -8  -1 -14    8.14    4.46
   8  -1  14    7.45    0.94
  -8   1 -14    4.14    4.06
   8   1  14    2.45    3.68
   8   1  14    9.36    1.02
  -8  -2  14   -0.89    2.25
   8  -2 -14    0.26    0.20
   8  -2 -14    0.33    3.38
   8   2 -14   -3.22    3.28
   8   2 -14    0.96    0.29
  -8   2  14    1.95    2.07
   8   2 -14    0.53    0.22
   7  -2 -14    4.93    0.54
   7  -2 -14    3.20    2.64
  -7  -2  14    6.38    2.84
   7   2 -14    7.83    3.82
  -7   2  14    4.71    2.23
   7   2 -14    5.65    0.51
   7   2 -14    4.11    0.61
   6  -2 -14   28.61    1.71
   6  -2 -14   34.56    5.70
  -6  -2  14   36.10    5.22
   6   2 -14   24.39    5.69
   6   2 -14   30.74    1.62
  -6   2  14   30.95    4.33
   6   2 -14   32.77    1.50
   5  -2 -14    5.85    2.31
  -5  -2  14    4.52    2.10
   5  -2 -14    4.65    0.47
   5   2 -14    5.19    2.59
   5   2 -14    4.88    0.58
  -5   2  14    4.79    2.00
   5   2 -14    4.58    0.44
   4  -2 -14    1.06    1.45
   4  -2 -14    0.74    0.22
  -4  -2  14   -0.10    0.63
   4   2 -14    1.08    0.24
   4   2 -14   -0.07    1.38
   4   2 -14    0.50    0.19
   3  -2 -14    2.60    1.15
   3  -2 -14    2.10    1.20
  -3  -2  14    1.25    1.08
   3  -2 -14    1.92    0.36
   3   2 -14    3.29    1.31
   3   2 -14    1.89    0.33
   3   2 -14    2.92    0.33
   2  -2 -14    3.32    1.40
   2  -2 -14    3.36    0.39
   2  -2 -14    3.03    1.54
   2   2 -14    4.05    0.38
   2   2 -14    3.91    0.43
   1  -2 -14    3.06    0.49
   1  -2 -14    4.34    1.73
   1  -2 -14    1.43    0.97
   1   2 -14    4.35    0.45
   1   2 -14    5.18    1.98
   1   2 -14    1.85    1.25
   1   2 -14    3.53    0.35
   0  -2 -14    0.33    0.81
   0  -2 -14   -0.19    0.50
   0  -2 -14    0.18    0.13
   0   2 -14    0.06    0.07
   0   2 -14    0.11    0.73
   0   2 -14    2.39    1.13
   0   2 -14    0.02    0.11
  -1  -2 -14    4.08    1.74
  -1  -2 -14    2.96    0.48
  -1   2 -14    2.65    1.42
   1   2  14    2.03    1.34
  -1   2 -14    3.24    0.35
  -1   2 -14    3.56    1.83
  -1   2 -14    3.06    0.49
   2  -2  14    6.85    2.49
  -2  -2 -14    2.31    1.74
   2   2  14    7.57    2.34
  -2   2 -14    5.56    2.10
  -2   2 -14    7.77    0.73
  -3  -2 -14    3.15    2.00
   3  -2  14    2.04    1.59
  -3   2 -14    1.07    1.69
   3   2  14    3.13    1.84
   4  -2  14    1.40    1.44
  -4  -2 -14    3.66    1.77
   4   2  14    2.40    1.87
  -4   2 -14    1.95    1.89
  -5  -2 -14   -0.73    1.86
   5  -2  14    5.45    2.87
   5   2  14    6.82    3.07
  -5   2 -14   -0.71    1.39
  -6  -2 -14   33.77    7.49
   6  -2  14   33.54    5.88
   6   2  14   33.36    5.82
   6   2  14   36.37    2.13
  -6   2 -14   37.00    8.29
   7  -2  14    8.36    3.11
   7  -2  14    8.55    0.96
  -7  -2 -14    4.60    4.15
  -7   2 -14    8.46    4.28
   7   2  14   12.73    4.38
   7   2  14   10.64    1.08
  -8  -2 -14    4.43    3.37
   8  -2  14    1.98    4.05
   8   2  14    2.44    3.59
   8   2  14    1.05    0.45
  -8   2 -14    7.48    4.69
  -8  -3  14   21.94    5.37
   8  -3 -14   14.65    1.01
   8  -3 -14   16.92    5.36
  -8   3  14   14.04    3.84
   8   3 -14    2.53    4.67
   8   3 -14   14.36    1.09
   8   3 -14   15.44    1.00
   7  -3 -14   53.85    8.11
   7  -3 -14   56.40    2.43
  -7  -3  14   64.40    7.50
   7   3 -14   52.57    2.35
  -7   3  14   56.85    6.00
   7   3 -14   57.09    2.54
   7   3 -14   49.98    8.71
  -6  -3  14    1.91    1.53
   6  -3 -14    3.70    2.64
   6  -3 -14    1.07    0.31
  -6   3  14    1.40    1.14
   6   3 -14    1.16    0.31
   6   3 -14    2.05    2.57
   6   3 -14    0.83    0.24
  -5  -3  14  130.47   10.43
   5  -3 -14  154.36   11.21
   5  -3 -14  139.28    5.09
   5   3 -14  138.28    5.05
   5   3 -14  147.40    5.23
  -5   3  14  144.22    9.30
   5   3 -14  145.60   12.43
   4  -3 -14    5.52    0.51
   4  -3 -14    8.29    2.60
  -4  -3  14    4.30    1.69
   4   3 -14    4.94    0.47
   4   3 -14    3.28    2.16
   4   3 -14    4.80    0.51
   3  -3 -14   56.58    4.93
   3  -3 -14   59.52    5.94
  -3  -3  14   52.24    5.96
   3  -3 -14   56.50    2.37
   3   3 -14   59.97    2.34
   3   3 -14   55.51    6.44
   3   3 -14   57.47    2.39
   2  -3 -14    4.40    1.53
   2  -3 -14    6.41    0.57
   2  -3 -14    8.43    2.68
   2   3 -14    6.35    0.52
   2   3 -14    6.09    0.56
   2   3 -14    3.84    1.98
   1  -3 -14   18.18    2.89
   1  -3 -14   18.88    2.97
   1  -3 -14   21.01    1.21
   1   3 -14   20.67    4.23
   1   3 -14   20.70    1.14
   1   3 -14   20.68    1.07
   1   3 -14   21.62    3.54
   0  -3 -14   86.54    7.08
   0  -3 -14   91.76    3.53
   0  -3 -14   81.56    6.59
   0   3 -14   88.74    3.39
   0   3 -14   79.59    7.29
   0   3 -14   84.73    7.45
   0   3 -14   87.17    3.22
  -1  -3 -14   22.94    1.41
  -1  -3 -14   26.49    4.00
  -1   3 -14   22.51    1.32
  -1   3 -14   24.16    3.93
   1   3  14   23.97    3.56
  -1   3 -14   24.07    1.19
  -2  -3 -14    4.48    2.02
  -2   3 -14    4.82    0.46
   2   3  14    5.67    2.03
  -2   3 -14    3.86    2.38
  -2   3 -14    4.78    0.59
  -3  -3 -14   49.19    6.59
   3  -3  14   54.13    6.22
   3   3  14   48.27    6.00
  -3   3 -14   49.59    6.77
  -4  -3 -14    4.48    2.51
   4  -3  14    2.04    1.72
   4   3  14    3.96    1.94
  -4   3 -14    6.05    3.40
   5  -3  14  126.58   10.91
  -5  -3 -14  118.65   12.12
   5   3  14  126.38   11.22
  -5   3 -14  120.16   12.25
   6  -3  14   -1.15    1.77
  -6  -3 -14    1.10    2.96
   6   3  14    0.01    0.20
  -6   3 -14    2.76    2.74
   6   3  14    0.13    1.66
  -7  -3 -14   57.50    9.15
   7  -3  14   59.20    3.01
   7  -3  14   53.67    7.57
  -7   3 -14   57.65    9.33
   7   3  14   48.09    8.05
   7   3  14   62.55    3.13
   8  -3  14   15.78    1.37
   8  -3  14   10.20    4.52
  -8  -3 -14    5.35    5.48
   8   3  14   10.75    4.46
   8   3  14   12.91    2.19
  -8   3 -14   22.42    7.18
   8  -4 -14    2.63    0.48
   8  -4 -14    2.92    3.35
  -8  -4  14    3.01    2.85
   8   4 -14    2.51    0.47
   8   4 -14    2.20    0.48
  -8   4  14    1.90    1.36
   8   4 -14    5.72    4.88
   7  -4 -14   23.89    5.69
  -7  -4  14   18.81    4.60
   7  -4 -14   20.55    1.21
   7   4 -14   22.19    1.32
  -7   4  14   22.18    3.66
   7   4 -14   20.13    1.23
   7   4 -14   13.46    5.47
   6  -4 -14    0.71    1.95
  -6  -4  14   -1.14    1.29
   6  -4 -14    0.26    0.16
   6   4 -14    0.20    0.15
   6   4 -14   -0.74    1.85
   6   4 -14   -0.04    0.11
  -6   4  14    1.17    0.92
   5  -4 -14   16.73    1.02
  -5  -4  14   10.55    3.34
   5  -4 -14   16.09    3.65
   5   4 -14   18.42    1.06
   5   4 -14   17.01    1.08
   5   4 -14   18.00    4.58
  -4  -4  14    1.06    1.10
   4  -4 -14    3.92    2.02
   4  -4 -14    2.83    0.43
   4  -4 -14    0.79    0.94
   4   4 -14    2.64    2.13
   4   4 -14    3.54    0.41
   4   4 -14    3.14    0.50
   3  -4 -14   13.73    0.88
  -3  -4  14   12.90    3.22
   3  -4 -14   13.91    2.25
   3  -4 -14   11.12    2.70
   3   4 -14   12.47    0.82
   3   4 -14   13.11    0.87
   3   4 -14   11.91    3.80
   2  -4 -14    1.02    0.93
   2  -4 -14    2.02    0.40
   2  -4 -14    2.19    1.14
   2   4 -14    4.38    1.88
   2   4 -14    1.53    0.33
   2   4 -14    2.74    0.34
   1  -4 -14  148.43    5.14
   1  -4 -14  120.55    8.21
   1  -4 -14  140.15    8.84
   1   4 -14  131.38    9.78
   1   4 -14  140.68    4.90
   1   4 -14  142.72    4.99
   1   4 -14  139.09   10.33
   0  -4 -14    0.08    0.15
   0  -4 -14    1.22    1.05
   0   4 -14    0.34    0.90
   0   4 -14    0.04    0.07
   0   4 -14    0.11    0.09
   0   4 -14    0.32    0.90
  -1  -4 -14  140.26    5.25
  -1  -4 -14  127.90    9.85
   1   4  14  150.58    9.63
  -1   4 -14  140.04    4.86
  -1   4 -14  135.70    5.03
  -1   4 -14  128.51    9.72
  -1   4 -14  128.43   10.04
  -2  -4 -14    1.92    1.80
  -2   4 -14    1.37    1.01
  -2   4 -14    2.37    0.46
  -2   4 -14    1.12    1.49
  -2   4 -14    2.92    0.35
   2   4  14    4.04    1.80
  -3  -4 -14   14.73    4.14
   3  -4  14   10.62    3.11
   3   4  14   12.75    3.38
  -3   4 -14   10.72    3.46
  -4  -4 -14    2.41    1.93
   4  -4  14    3.20    1.63
  -4   4 -14    1.98    2.32
   4   4  14    2.91    1.86
   5  -4  14   16.42    4.32
  -5  -4 -14   10.91    3.97
   5   4  14   19.63    4.87
  -5   4 -14   11.68    3.88
   6  -4  14    0.07    0.23
   6  -4  14   -0.13    1.68
  -6  -4 -14   -0.75    2.15
   6   4  14    3.22    2.10
  -6   4 -14   -0.41    2.01
   6   4  14    0.38    0.19
  -7  -4 -14   17.38    6.00
   7  -4  14   20.06    1.52
   7  -4  14   19.05    5.60
  -7   4 -14    8.32    4.79
   7   4  14   23.25    1.67
   8  -4  14    0.77    3.43
   8  -4  14    1.76    0.46
  -8  -4 -14   -0.38    4.53
  -8   4 -14   -0.71    3.74
   8   4  14    0.30    3.65
   8   4  14    1.84    0.57
   8  -5 -14   11.05    4.79
  -8  -5  14    7.41    3.79
   8  -5 -14    9.23    0.77
   8   5 -14    4.73    5.17
   8   5 -14    9.81    0.84
   8   5 -14    9.55    0.85
  -8   5  14   10.08    2.94
   7  -5 -14    0.17    0.16
  -7  -5  14    2.79    2.15
   7  -5 -14   -3.29    2.71
   7   5 -14   -0.08    0.16
   7   5 -14    0.28    0.21
   7   5 -14   -2.45    2.16
  -7   5  14    1.11    1.22
   6  -5 -14    2.03    0.38
   6  -5 -14    3.84    2.18
  -6  -5  14    1.66    1.35
   6   5 -14    2.11    0.43
   6   5 -14    0.39    2.39
   6   5 -14    1.67    0.35
   5  -5 -14   -0.77    1.33
  -5  -5  14    0.12    1.35
   5  -5 -14    2.48    1.11
   5  -5 -14    1.55    0.30
   5   5 -14    0.84    0.26
   5   5 -14    2.99    2.34
   5   5 -14    0.45    0.21
   4  -5 -14   11.96    0.82
   4  -5 -14   13.97    3.28
  -4  -5  14    7.18    2.65
   4  -5 -14   11.98    2.02
   4   5 -14   12.53    4.24
   4   5 -14   11.17    0.82
   4   5 -14   11.75    0.85
   3  -5 -14    5.17    0.52
  -3  -5  14    3.77    1.74
   3  -5 -14    3.42    1.37
   3  -5 -14    5.65    1.91
   3   5 -14    5.37    0.52
   3   5 -14    6.78    2.44
   3   5 -14    6.33    0.56
   2  -5 -14    1.30    1.07
   2  -5 -14    3.03    1.24
   2  -5 -14    3.36    0.49
   2   5 -14    2.28    0.38
   2   5 -14    2.20    0.36
   2   5 -14    0.73    1.63
   1  -5 -14    0.50    0.20
   1  -5 -14    1.12    0.86
   1  -5 -14   -0.36    0.52
   1   5 -14    1.34    0.30
   1   5 -14    0.86    0.21
   1   5 -14   -0.51    1.00
   1   5 -14    2.12    1.25
   0  -5 -14   87.88    7.48
   0  -5 -14  110.26    4.20
   0   5 -14  108.36    9.07
   0   5 -14  106.36    3.90
   0   5 -14   98.72    8.54
   0   5 -14  113.41    4.02
  -1  -5 -14   -0.26    0.90
   1   5  14    1.78    1.21
  -1   5 -14    1.24    0.31
  -1   5 -14    1.04    0.26
  -1   5 -14    1.28    0.90
  -1   5 -14    2.38    1.62
  -2  -5 -14    3.02    2.09
  -2   5 -14    4.78    0.54
  -2   5 -14    2.86    1.76
   2   5  14    3.38    1.61
  -2   5 -14    3.93    0.44
  -2   5 -14    3.70    1.74
  -3  -5 -14    6.81    2.65
  -3   5 -14   10.16    0.75
   3   5  14   11.88    3.11
  -3   5 -14    8.98    3.06
  -4  -5 -14   11.56    3.79
   4  -5  14   10.75    3.58
  -4   5 -14   11.26    3.64
   4   5  14   10.35    3.57
  -5  -5 -14    0.97    1.86
   5  -5  14   -1.20    1.07
   5   5  14    0.01    0.17
  -5   5 -14   -0.38    2.34
   6  -5  14    2.27    2.04
   6  -5  14    3.28    0.66
  -6  -5 -14    1.11    3.35
  -6   5 -14    1.47    3.40
   6   5  14    0.87    2.07
   6   5  14    3.30    0.68
   7  -5  14    3.96    2.96
   7  -5  14    0.09    0.23
  -7  -5 -14    7.35    3.84
   7   5  14   -0.16    0.32
  -7   5 -14   -2.92    2.75
   7   5  14    0.19    2.89
   8  -5  14   14.47    1.27
   8  -5  14    4.15    6.21
   8   5  14   15.00    1.38
  -8   5 -14   14.16    6.02
  -7  -6  14   11.87    6.59
   7  -6 -14   12.06    0.88
   7  -6 -14    9.08    3.57
   7   6 -14   14.16    1.05
   7   6 -14   12.98    0.99
   7   6 -14   12.06    7.32
   6  -6 -14    2.24    0.42
   6  -6 -14    2.07    1.94
  -6  -6  14    3.24    2.80
   6   6 -14    2.37    0.46
   6   6 -14   -0.61    2.36
   6   6 -14    1.69    0.38
   5  -6 -14    9.20    0.70
   5  -6 -14    8.82    1.92
  -5  -6  14   11.22    3.51
   5  -6 -14    9.63    2.79
   5   6 -14    9.46    0.79
   5   6 -14    7.90    4.10
   5   6 -14    9.30    0.77
  -4  -6  14    9.66    3.15
   4  -6 -14   13.21    0.87
   4  -6 -14   14.02    3.11
   4   6 -14   14.71    0.97
   4   6 -14   13.09    0.95
   4   6 -14   12.99    4.23
   3  -6 -14   12.96    0.87
  -3  -6  14   11.61    3.10
   3  -6 -14   10.30    2.14
   3  -6 -14    8.76    2.20
   3   6 -14    7.29    3.02
   3   6 -14   12.77    0.86
   3   6 -14   11.12    0.82
   2  -6 -14    1.69    0.37
   2  -6 -14    0.76    0.94
   2  -6 -14    0.40    0.97
   2   6 -14    1.48    0.31
   2   6 -14    1.82    0.35
  -2   6  14    1.36    0.24
   2   6 -14    3.43    1.93
   1  -6 -14   34.33    4.02
   1  -6 -14   38.45    3.84
   1  -6 -14   38.07    1.86
   1   6 -14   34.12    4.93
   1   6 -14   36.68    1.72
   1   6 -14   36.56    1.71
   1   6 -14   31.00    4.87
   0  -6 -14   -0.07    0.15
   0  -6 -14   -0.78    0.68
   0   6 -14   -0.10    0.07
   0   6 -14    0.09    0.86
  -1  -6 -14   37.87    5.07
  -1   6 -14   38.30    5.15
  -1   6 -14   26.96    4.66
  -1   6 -14   36.75    1.69
  -1   6 -14   35.46    1.76
  -2  -6 -14    1.91    1.52
  -2   6 -14    1.62    1.31
   2   6  14    2.98    1.34
  -2   6 -14    1.04    0.27
  -2   6 -14    0.67    1.39
  -2   6 -14    0.71    0.24
  -3  -6 -14    6.40    2.62
  -3   6 -14    8.97    0.70
  -3   6 -14    6.56    2.45
   3   6  14    8.60    2.76
  -3   6 -14    4.54    2.39
  -4  -6 -14   12.10    4.32
  -4   6 -14    9.04    3.77
  -5  -6 -14   11.98    4.06
   5  -6  14    5.03    2.62
   5   6  14    6.33    0.77
  -5   6 -14    2.48    2.86
   5   6  14    3.81    2.49
   6  -6  14    1.61    2.00
   6  -6  14    0.40    0.26
  -6  -6 -14   -0.06    2.51
   6   6  14    3.01    2.52
  -6   6 -14   -0.23    2.51
   6   6  14   -0.05    0.24
   7  -6  14   17.68    1.38
   7  -6  14   21.45    5.54
  -7   6 -14    7.48    4.58
   7   6  14   18.55    1.48
   7  -7 -14    5.85    0.59
  -7  -7  14    5.96    3.64
   7   7 -14    9.15    4.83
   7   7 -14    6.73    0.72
   7   7 -14    7.17    1.39
   6  -7 -14    5.36    0.54
  -6  -7  14    3.97    3.10
   6  -7 -14    6.29    2.20
   6   7 -14    7.54    3.85
   6   7 -14    5.28    0.61
   6   7 -14    5.87    0.63
   5  -7 -14    1.84    0.81
  -5  -7  14    0.76    1.39
   5  -7 -14    0.83    0.26
   5  -7 -14   -0.70    1.14
   5   7 -14   -0.85    2.27
   5   7 -14    0.91    0.27
   5   7 -14    0.24    0.20
   4  -7 -14   17.51    3.63
   4  -7 -14   25.44    2.85
   4  -7 -14   24.15    1.30
  -4  -7  14   19.71    4.49
   4   7 -14   24.92    1.40
   4   7 -14   22.17    5.28
   4   7 -14   22.54    1.31
   3  -7 -14    0.87    0.86
   3  -7 -14    0.31    0.72
  -3  -7  14   -0.66    1.07
   3  -7 -14    0.56    0.19
   3   7 -14    0.39    0.16
   3   7 -14    0.26    1.70
   3   7 -14    0.73    0.26
  -3   7  14    0.05    0.11
   2  -7 -14  102.53    6.43
   2  -7 -14  100.74    3.86
   2   7 -14  101.74    9.54
   2   7 -14   95.84    4.02
   2   7 -14   99.38    3.74
  -2   7  14   93.34    3.42
   1  -7 -14    4.35    1.75
   1  -7 -14    8.22    0.74
   1  -7 -14    8.23    2.03
   1   7 -14    7.78    0.65
   1   7 -14    7.88    2.56
   1   7 -14    8.23    0.68
   1   7 -14    3.95    2.24
   0  -7 -14  141.85    9.51
   0   7 -14  120.37   10.03
   0   7 -14  134.94    4.92
   0   7 -14  139.49    4.94
   0   7 -14  134.65   10.71
  -1  -7 -14    6.63    2.31
  -1   7 -14    8.48    0.69
  -1   7 -14   12.17    3.39
  -1   7 -14    9.48    3.33
  -1   7 -14    8.59    0.74
  -2  -7 -14   80.18    8.42
  -2   7 -14   90.25    3.59
  -2   7 -14   77.87    8.49
  -2   7 -14   76.37    7.83
  -2   7 -14   93.03    3.43
  -3   7 -14    1.15    0.30
  -3   7 -14    1.19    2.07
  -3   7 -14   -1.77    1.36
  -4  -7 -14   31.80    6.73
  -4   7 -14   25.09    4.37
  -4   7 -14   23.59    1.38
   4   7  14   31.31    5.27
  -4   7 -14   20.34    5.21
  -5  -7 -14    3.53    2.68
   5   7  14    0.47    1.97
  -5   7 -14    5.41    2.50
   6  -7  14    2.16    0.48
   6  -7  14    3.05    3.33
   6   7  14    3.29    0.67
  -6   7 -14    5.99    3.22
   7  -7  14    0.21    2.92
  -7   7 -14    1.29    5.33
   7  -8 -14    0.33    0.45
  -7  -8  14   -2.31    2.48
   7   8 -14    7.58    5.12
  -6  -8  14   53.75    7.60
   6  -8 -14   60.23    2.56
   6   8 -14   63.90    2.84
   6   8 -14   60.39    9.25
   6   8 -14   61.15    2.75
  -5  -8  14    1.01    1.97
   5   8 -14    0.40    0.19
   5   8 -14    0.31    0.18
   5   8 -14    0.07    2.19
   4  -8 -14   15.88    1.04
  -4  -8  14   10.55    3.44
   4   8 -14   18.22    1.11
   4   8 -14   11.61    4.22
   4   8 -14   17.72    1.17
  -3  -8  14    8.02    2.76
   3  -8 -14    7.37    0.69
   3   8 -14    8.22    3.41
  -3   8  14    6.99    0.47
   3   8 -14    7.23    0.69
   3   8 -14    8.21    0.73
   2  -8 -14   36.91    2.97
   2  -8 -14   36.76    2.77
   2  -8 -14   41.20    1.94
   2   8 -14   36.13    1.83
   2   8 -14   35.05    5.63
   2   8 -14   37.46    1.78
  -2   8  14   39.30    1.52
   1  -8 -14   17.02    2.26
   1  -8 -14   16.93    2.71
   1   8 -14   24.96    5.57
   1   8 -14   17.69    1.07
   1   8 -14   17.17    4.18
   1   8 -14   18.95    1.14
   0  -8 -14   -0.28    0.97
   0   8 -14    1.06    1.56
   0   8 -14    0.10    0.11
   0   8 -14    0.40    0.26
   0   8 -14   -1.05    1.04
  -1   8 -14   14.94    4.21
  -1   8 -14   17.78    1.33
  -1   8 -14   17.88    4.58
  -1   8 -14   19.28    1.17
  -2  -8 -14   21.47    4.59
  -2   8 -14   32.85    1.61
  -2   8 -14   29.72    5.03
  -2   8 -14   33.47    1.72
  -2   8 -14   21.80    4.80
  -3  -8 -14    5.07    3.01
  -3   8 -14    7.37    0.66
  -3   8 -14    2.30    2.31
  -3   8 -14    0.65    2.37
   3   8  14    5.56    2.86
  -4  -8 -14    7.91    3.03
  -4   8 -14   15.82    4.39
   4   8  14    9.57    3.24
   4   8  14   14.16    1.44
  -4   8 -14   15.27    4.57
  -4   8 -14   15.87    1.04
  -5   8 -14    1.52    1.91
   5   8  14    1.75    0.47
   6  -8  14   64.74    3.04
   6   8  14   65.35    3.27
  -6  -9  14    3.34    2.88
   6   9 -14    0.21    0.24
   5  -9 -14    4.78    0.63
  -5  -9  14    3.15    2.73
   5   9 -14    8.25    4.51
   5   9 -14    4.86    0.61
   5   9 -14    4.09    0.60
   4  -9 -14    1.38    0.37
  -4  -9  14    3.06    2.31
   4   9 -14    1.11    0.29
   4   9 -14    1.75    0.42
   4   9 -14    5.40    3.20
  -3  -9  14    1.27    1.96
   3  -9 -14    3.39    0.54
   3   9 -14    2.77    0.52
   3   9 -14    1.97    0.39
   3   9 -14    3.68    2.40
  -2   9  14   16.89    0.80
   2   9 -14   15.88    1.08
   2   9 -14   16.72    5.12
   2   9 -14   15.90    1.02
   1  -9 -14    8.02    1.82
   1  -9 -14    6.59    1.25
   1   9 -14    3.34    2.13
   1   9 -14    7.79    0.64
   1   9 -14    6.39    0.64
   1   9 -14    6.31    2.90
   0  -9 -14   13.63    3.00
   0  -9 -14   15.43    2.15
   0   9 -14   13.32    0.91
   0   9 -14   10.93    3.61
   0   9 -14    7.25    3.18
   0   9 -14   12.97    0.94
  -1  -9 -14    2.92    1.97
  -1   9 -14    4.49    2.17
   1   9  14    3.22    1.40
  -1   9 -14    1.23    1.78
  -2  -9 -14   16.70    4.41
   2   9  14   16.47    3.74
  -2   9 -14   14.36    4.07
  -2   9 -14   17.84    1.20
  -2   9 -14   20.21    1.19
  -3   9 -14   -0.39    1.90
  -3   9 -14    0.52    1.68
   4   9  14    0.91    0.30
  -4   9 -14    1.78    2.54
  -4   9 -14    0.70    1.87
  -4   9 -14    0.57    0.23
  -5   9 -14    3.67    4.22
   5   9  14    6.74    0.99
  -6   9 -14    2.42    3.11
   5 -10 -14   -0.11    0.24
  -5 -10  14    3.13    2.84
   5  10 -14   -4.39    2.89
   5  10 -14    0.06    0.14
   5  10 -14    0.18    0.21
   4 -10 -14   21.13    1.26
   4  10 -14   19.80    1.35
   4  10 -14   18.97    1.21
  -3 -10  14   26.64    5.52
   3  10 -14   28.33    1.63
   3  10 -14   29.50    1.53
   2  10 -14    8.60    0.76
   2  10 -14    7.49    0.67
   1  10 -14   21.23    5.00
   1  10 -14   23.56    1.39
   1  10 -14   22.53    1.25
   0 -10 -14   -0.33    1.02
   0 -10 -14   -0.67    0.59
   0  10 -14    0.36    0.24
   0  10 -14    0.32    0.14
   0  10 -14    0.40    1.61
  -1  10 -14   23.83    1.40
  -1  10 -14   34.30    5.81
   1  10  14   22.90    5.80
  -1  10 -14   26.68    1.46
  -1  10 -14   17.52    4.21
  -2  10 -14   10.71    3.69
  -2  10 -14    5.25    2.67
  -2  10 -14    9.44    0.85
  -2  10 -14    9.70    0.79
  -3  10 -14   24.32    1.42
  -3  10 -14   18.25    5.21
   3  10  14   25.82    1.55
  -4  10 -14   14.63    4.75
  -4  10 -14   22.78    1.37
   4  10  14   23.19    1.53
   5  10  14    0.45    0.25
  -5  10 -14    0.04    2.94
  -4 -11  14   -0.20    2.28
   4  11 -14    0.68    0.39
   4  11 -14   -3.79    2.76
   4  11 -14    0.53    0.20
   3  11 -14   34.91    1.76
   3  11 -14   37.23    1.97
   3  11 -14   31.71    7.72
   2  11 -14    7.20    0.83
   2  11 -14   10.20    0.84
   2  11 -14    2.78    2.68
   2  11 -14    8.16    3.66
   1  11 -14    4.21    0.46
   1  11 -14    2.37    2.42
   1  11 -14    3.02    0.53
   1  11 -14    1.96    2.22
   0 -11 -14    0.83    0.84
   0  11 -14    0.49    0.23
   0  11 -14    0.32    0.18
   0  11 -14    0.53    2.19
   0  11 -14   -1.36    1.19
  -1  11 -14    4.37    3.00
  -1  11 -14    4.23    0.59
  -1  11 -14    3.63    0.55
  -2  11 -14    9.68    0.82
   2  11  14    9.47    0.86
  -2  11 -14    9.94    0.82
  -2  11 -14    6.83    3.02
   3  11  14   35.54    2.11
  -3  11 -14   43.10    7.30
  -3  11 -14   33.88    1.82
  -4  11 -14   -0.71    3.11
  -4  11 -14    0.02    0.19
   4  11  14    0.02    0.19
   3  12 -14    0.39    0.24
   3  12 -14    0.87    0.31
   2  12 -14    9.76    3.53
   2  12 -14    7.28    0.76
   2  12 -14    8.26    0.68
   1  12 -14    6.13    0.67
   1  12 -14    6.29    0.60
   1  12 -14    1.52    1.72
   0  12 -14    0.19    0.17
   0  12 -14    0.12    0.18
   0  12 -14   -0.62    1.78
  -1  12 -14    6.94    3.73
  -1  12 -14    9.83    0.80
   1  12  14    9.05    0.79
  -1  12 -14    9.93    0.85
   2  12  14   11.03    0.93
  -2  12 -14   10.15    4.45
  -2  12 -14    9.80    0.86
   3  12  14    0.03    0.21
  -3  12 -14    0.58    0.21
   1  13 -14    0.00    0.20
   1  13 -14    0.12    0.19
   0  13 -14    1.95    0.69
   0  13 -14    2.35    0.41
   1  13  14    0.18    0.25
  -1  13 -14    0.45    0.23
  -1  13 -14   -0.01    0.23
  -8   0  15   -2.71    1.41
   8   0 -15    0.20    0.16
   8   0 -15    3.94    4.24
   8   0 -15   -0.18    0.14
  -7   0  15   28.86    5.04
   7   0 -15   39.36    1.88
   7   0 -15   35.76    1.53
   7   0 -15   28.59    6.55
  -6   0  15    0.31    1.08
   6   0 -15    0.17    0.10
   6   0 -15   -0.15    0.10
   6   0 -15   -1.84    2.34
   5   0 -15   33.07    2.28
   5   0 -15   33.55    1.44
  -5   0  15   36.89    4.85
   4   0 -15    0.03    0.09
  -4   0  15   -0.96    0.67
   4   0 -15    0.07    0.07
   3   0 -15    0.57    0.15
   3   0 -15    0.77    0.23
   3   0 -15    1.48    1.04
   2   0 -15    0.41    0.79
   2   0 -15   -0.05    0.05
   2   0 -15   -0.05    0.64
   2   0 -15    0.04    0.09
   1   0 -15    6.89    0.63
   1   0 -15    5.99    2.19
   1   0 -15    9.21    2.71
   1   0 -15    7.96    0.53
   0   0 -15    0.63    0.81
   0   0 -15    0.44    1.07
  -1   0 -15   13.82    1.01
  -1   0 -15    9.12    2.70
  -2   0 -15   -0.07    0.09
  -2   0 -15    1.03    1.13
   2   0  15   -0.56    0.87
   3   0  15   11.62    3.19
  -3   0 -15   11.11    3.56
  -4   0 -15    1.10    1.87
   4   0  15   -1.19    1.36
   5   0  15   45.67    6.45
  -5   0 -15   56.61    8.12
   6   0  15    1.91    2.30
  -6   0 -15   -0.14    1.85
   7   0  15   21.14    1.63
  -7   0 -15   21.36    6.10
   7   0  15   24.60    5.53
  -8   0 -15    2.63    4.48
   8   0  15    2.46    3.35
   8  -1 -15   13.10    0.97
   8  -1 -15   15.10    5.27
  -8  -1  15    6.02    2.90
   8   1 -15   12.29    0.80
  -8   1  15    6.17    2.70
   8   1 -15    9.00    4.69
   8   1 -15   12.07    0.96
   7  -1 -15    7.88    0.60
   7  -1 -15    4.45    3.39
   7  -1 -15    7.44    0.69
   7   1 -15    2.98    3.64
   7   1 -15    6.83    0.69
   7   1 -15    6.34    0.54
  -7   1  15    5.55    2.42
   6  -1 -15    0.12    1.80
  -6  -1  15    1.31    1.31
   6  -1 -15    0.81    0.24
   6   1 -15    0.83    2.04
   6   1 -15    0.54    0.22
   6   1 -15    0.70    0.20
  -6   1  15   -1.10    1.01
   5  -1 -15   40.96    1.90
   5  -1 -15   36.12    5.59
   5  -1 -15   39.13    1.53
  -5  -1  15   37.48    5.14
  -5   1  15   34.55    4.47
   5   1 -15   38.24    1.66
   5   1 -15   41.79    6.25
   5   1 -15   39.76    1.87
   4  -1 -15    1.44    0.22
   4  -1 -15    1.70    0.33
  -4  -1  15    0.22    0.89
   4  -1 -15   -0.33    1.40
   4   1 -15    5.78    2.26
   4   1 -15    1.74    0.28
   4   1 -15    1.59    0.34
   3  -1 -15    2.70    1.36
   3  -1 -15    5.60    2.48
   3  -1 -15    6.38    0.42
   3  -1 -15    6.31    0.57
   3   1 -15    4.80    2.01
   3   1 -15    6.71    0.49
   3   1 -15    6.72    0.60
   2  -1 -15    8.90    0.70
   2  -1 -15    8.21    0.51
   2  -1 -15    9.04    2.63
   2  -1 -15    7.52    1.97
   2   1 -15    9.03    0.59
   2   1 -15    7.18    2.22
   2   1 -15    7.23    0.64
   2   1 -15    9.48    2.69
   1  -1 -15    8.97    2.41
   1  -1 -15   12.07    0.87
   1   1 -15   13.24    3.16
   1   1 -15   12.84    0.88
   1   1 -15   13.42    3.14
   1   1 -15   13.48    0.75
   0  -1 -15    4.62    1.61
   0  -1 -15    6.87    0.64
   0  -1 -15    5.77    2.10
   0   1 -15    6.07    0.59
   0   1 -15    5.65    0.46
  -1  -1 -15   18.59    1.21
  -1  -1 -15   15.85    3.55
  -1   1 -15   12.14    2.90
  -1   1 -15   18.99    1.20
  -1   1 -15   15.36    3.58
  -2  -1 -15    8.01    2.69
   2  -1  15    6.34    2.38
  -2  -1 -15    8.47    0.85
  -2   1 -15    7.39    0.75
   2   1  15    6.57    2.22
  -2   1 -15   11.41    3.12
  -3  -1 -15    2.22    1.67
   3  -1  15    3.63    1.84
  -3   1 -15    3.21    2.10
   3   1  15    3.52    1.84
   4  -1  15    2.98    1.98
  -4  -1 -15    2.42    1.80
  -4   1 -15   -0.23    1.71
   4   1  15    2.26    2.23
   5  -1  15    8.17    3.22
  -5  -1 -15    6.54    3.13
  -5   1 -15    8.11    3.80
   5   1  15   20.65    4.85
  -6  -1 -15    1.66    2.73
   6  -1  15    0.01    2.05
   6   1  15    2.31    2.54
  -6   1 -15    2.89    2.83
   6   1  15    1.78    0.49
   7  -1  15   13.46    1.21
  -7  -1 -15   11.12    4.99
   7  -1  15    9.73    3.93
  -7   1 -15    9.20    6.00
   7   1  15   10.82    1.13
   7   1  15   13.41    4.52
   8  -1  15   -5.36    3.34
  -8  -1 -15    2.53    4.29
  -8   1 -15    8.65    4.51
   8   1  15    1.69    3.77
   8  -2 -15    7.48    0.69
   8  -2 -15    3.35    3.97
  -8  -2  15    5.26    3.47
   8   2 -15    7.32    0.62
   8   2 -15    6.21    1.17
  -8   2  15    3.44    2.01
   8   2 -15    5.46    4.47
  -7  -2  15    5.21    2.12
   7  -2 -15    3.49    3.20
   7  -2 -15    0.18    0.14
   7   2 -15    0.56    0.19
  -7   2  15    1.16    1.46
   7   2 -15   -0.10    2.65
   6  -2 -15   12.21    0.88
   6  -2 -15   10.63    3.88
  -6  -2  15   10.85    3.05
   6   2 -15   10.84    3.75
   6   2 -15   13.51    0.83
  -6   2  15    9.01    2.77
   6   2 -15   12.86    0.93
  -5  -2  15    2.52    1.66
   5  -2 -15    2.15    0.40
   5   2 -15    1.52    0.28
   5   2 -15    1.99    2.48
   5   2 -15    2.04    0.39
   4  -2 -15   22.78    1.27
   4  -2 -15   24.20    4.95
  -4  -2  15   25.18    4.00
   4   2 -15   25.67    1.34
   4   2 -15   23.34    5.06
   4   2 -15   22.39    1.16
   3  -2 -15    6.44    2.24
   3  -2 -15   10.39    2.49
   3  -2 -15    9.58    0.72
   3   2 -15    9.48    0.72
   3   2 -15   10.39    3.29
   3   2 -15    8.11    0.60
   2  -2 -15   16.47    3.46
   2  -2 -15   14.87    3.07
   2  -2 -15   16.83    1.02
   2   2 -15    9.55    2.62
   2   2 -15   16.04    0.98
   2   2 -15   14.95    0.85
   2   2 -15   14.50    3.59
   1  -2 -15   11.55    2.91
   1  -2 -15   15.19    3.37
   1  -2 -15   14.29    0.97
   1   2 -15   11.61    3.32
   1   2 -15   14.58    0.94
   1   2 -15   15.24    4.85
   1   2 -15   14.84    0.84
   0  -2 -15    0.16    0.18
   0  -2 -15   -0.49    0.74
   0   2 -15    0.63    0.19
   0   2 -15   -0.14    0.76
   0   2 -15    0.71    0.19
   0   2 -15    0.16    0.77
  -1  -2 -15    4.33    1.77
  -1  -2 -15    6.10    0.66
  -1   2 -15    6.18    0.50
  -1   2 -15    5.50    0.62
   1   2  15    5.99    2.13
  -1   2 -15    8.94    2.90
  -1   2 -15    7.24    2.36
  -2  -2 -15    2.88    1.79
  -2   2 -15    0.45    1.13
  -2   2 -15    1.50    0.38
   2   2  15    0.44    0.93
  -3  -2 -15   -0.85    1.14
   3  -2  15    3.41    1.54
  -3   2 -15   -0.46    1.52
   3   2  15    0.47    1.53
   4  -2  15    1.39    1.63
  -4  -2 -15    1.36    1.70
  -4   2 -15    3.46    2.25
   4   2  15    2.27    1.78
  -5  -2 -15    9.56    4.16
   5  -2  15    8.95    3.31
  -5   2 -15   13.54    4.10
   5   2  15   12.17    3.78
   6  -2  15   10.50    3.90
  -6  -2 -15    7.95    4.18
   6   2  15    7.61    3.41
  -6   2 -15   12.13    4.79
   6   2  15   10.56    1.06
   7  -2  15    4.06    0.82
   7  -2  15    6.08    3.41
  -7  -2 -15    8.17    4.48
   7   2  15    5.50    3.29
  -7   2 -15    4.29    3.82
   7   2  15    5.96    0.95
   8  -2  15   24.52    1.81
   8  -2  15   23.71    6.78
   8   2  15   27.13    1.99
  -8   2 -15   15.01    5.47
   8  -3 -15   28.40    6.99
   8  -3 -15   29.59    1.60
  -8  -3  15   25.27    5.78
   8   3 -15   14.69    8.11
  -8   3  15   27.90    4.87
   8   3 -15   31.45    1.73
   8   3 -15   29.17    1.51
   7  -3 -15    3.79    2.86
   7  -3 -15    4.32    0.51
  -7  -3  15    1.69    2.02
  -7   3  15    1.41    1.70
   7   3 -15    2.95    0.53
   7   3 -15    4.22    0.47
   7   3 -15   -0.64    3.41
   6  -3 -15    9.94    0.76
  -6  -3  15   11.65    3.43
  -6   3  15    4.81    1.95
   6   3 -15    0.64    3.21
   6   3 -15    9.32    0.87
   6   3 -15    8.63    0.77
   5  -3 -15    1.65    1.71
   5  -3 -15    2.54    0.40
  -5  -3  15    0.92    1.24
   5   3 -15    3.93    2.46
   5   3 -15    2.44    0.40
   5   3 -15    2.90    0.49
  -4  -3  15    3.58    1.75
   4  -3 -15    6.74    2.57
   4  -3 -15    3.49    1.40
   4  -3 -15    2.04    0.37
   4   3 -15    2.24    0.36
   4   3 -15    5.85    2.68
   4   3 -15    2.15    0.37
  -3  -3  15   -0.05    0.61
   3  -3 -15    0.33    0.70
   3  -3 -15    1.05    1.17
   3   3 -15    0.27    0.14
   3   3 -15   -0.09    1.13
   3   3 -15    0.02    0.07
   2  -3 -15    1.29    1.17
   2  -3 -15    0.29    0.73
   2  -3 -15    1.03    0.26
   2   3 -15    1.55    0.30
   2   3 -15    0.78    1.17
   2   3 -15   -0.11    0.97
   1  -3 -15    0.09    0.76
   1  -3 -15   -0.10    0.60
   1   3 -15    0.19    0.13
   1   3 -15    0.46    0.88
   1   3 -15   -1.49    0.86
   0  -3 -15    2.01    0.45
   0  -3 -15    1.04    1.25
   0  -3 -15    1.72    1.25
   0   3 -15    2.26    0.41
   0   3 -15    4.03    1.76
   0   3 -15    2.11    1.43
   0   3 -15    2.42    0.37
  -1  -3 -15   -0.37    0.75
  -1  -3 -15    0.06    0.12
  -1   3 -15    0.01    0.12
   1   3  15   -0.70    0.63
  -1   3 -15   -0.09    0.89
  -1   3 -15    0.11    0.10
  -1   3 -15   -1.06    0.78
  -2  -3 -15   17.15    4.44
  -2   3 -15   14.18    1.06
  -2   3 -15   13.78    0.87
  -2   3 -15   12.95    3.35
   2   3  15   12.06    3.00
   3  -3  15    1.14    1.19
  -3  -3 -15    1.05    1.54
   3   3  15    0.89    1.30
  -3   3 -15   -1.43    1.15
   4  -3  15   39.47    5.63
  -4  -3 -15   26.01    5.59
  -4   3 -15   45.69    6.96
   4   3  15   42.50    6.00
   5  -3  15    4.66    1.87
  -5  -3 -15    6.26    3.24
  -5   3 -15    2.72    2.86
   5   3  15    6.98    3.36
  -6  -3 -15    5.78    3.77
   6  -3  15    4.73    2.76
   6   3  15    3.20    2.79
  -6   3 -15   10.31    4.12
  -7  -3 -15    2.96    4.70
   7  -3  15    6.26    3.52
  -7   3 -15    0.03    3.02
  -8  -3 -15   10.25    5.33
   8  -3  15   -0.56    3.50
   8  -3  15    4.18    0.73
   8   3  15    2.92    0.69
   8   3  15   10.61    4.64
  -8   3 -15    7.42    4.99
  -8  -4  15    2.25    4.18
   8  -4 -15    1.55    0.33
   8  -4 -15    1.03    3.90
   8   4 -15    1.90    0.36
   8   4 -15    2.57    0.51
  -8   4  15    1.55    1.72
   7  -4 -15    3.39    2.95
   7  -4 -15    2.54    0.44
  -7  -4  15    2.55    2.12
   7   4 -15    2.55    0.46
   7   4 -15   -0.76    2.97
  -7   4  15    1.30    1.57
   7   4 -15    1.73    0.37
  -6  -4  15    3.50    2.87
   6  -4 -15    6.32    0.61
   6  -4 -15    6.27    2.59
   6   4 -15    5.53    3.47
   6   4 -15    6.87    0.62
   6   4 -15    6.90    0.69
   5  -4 -15    3.24    1.97
  -5  -4  15   -0.60    1.14
   5  -4 -15    0.61    0.77
   5  -4 -15    1.88    0.36
   5   4 -15    1.25    0.38
   5   4 -15    1.84    2.52
   5   4 -15    1.31    0.33
   4  -4 -15   27.46    4.33
   4  -4 -15   34.28    1.61
   4  -4 -15   33.39    4.53
  -4  -4  15   29.24    4.83
   4   4 -15   24.78    5.45
   4   4 -15   32.66    2.24
   4   4 -15   31.77    1.56
  -3  -4  15    2.33    1.31
   3  -4 -15    5.19    1.65
   3  -4 -15    4.51    0.50
   3  -4 -15    4.07    1.89
   3   4 -15    2.91    2.34
   3   4 -15    5.54    0.51
   3   4 -15    5.44    0.55
   2  -4 -15   26.08    3.59
   2  -4 -15   29.13    3.46
   2  -4 -15   25.49    1.41
   2   4 -15   25.11    1.31
   2   4 -15   28.91    4.63
   2   4 -15   27.24    1.40
   1  -4 -15    0.29    0.85
   1  -4 -15    0.24    0.19
   1  -4 -15    0.39    0.69
   1   4 -15    0.71    0.20
   1   4 -15    0.51    0.98
   1   4 -15   -0.14    1.21
   1   4 -15    0.41    0.19
   0  -4 -15    8.29    2.37
   0  -4 -15   12.14    0.95
   0  -4 -15    9.44    2.81
   0   4 -15   11.80    3.31
   0   4 -15   12.56    0.87
   0   4 -15   11.92    0.78
   0   4 -15   10.72    2.94
  -1  -4 -15    3.68    0.68
  -1  -4 -15    1.10    1.36
  -1   4 -15    1.73    1.59
   1   4  15    1.48    1.36
  -1   4 -15    3.08    0.53
  -1   4 -15    2.17    0.36
  -1   4 -15    3.60    1.59
  -2  -4 -15    4.82    2.17
  -2   4 -15    4.00    1.96
  -2   4 -15    4.58    0.47
  -2   4 -15    4.18    0.64
   2   4  15    5.78    2.36
  -2   4 -15    2.59    1.83
  -3  -4 -15    7.36    3.12
   3   4  15    5.55    2.20
  -3   4 -15    3.33    1.88
  -3   4 -15    4.85    0.76
  -4  -4 -15    1.36    1.98
   4  -4  15    0.36    1.30
  -4   4 -15    5.08    2.90
   4   4  15    0.95    1.48
  -5  -4 -15   -0.60    2.34
   5  -4  15    1.78    1.72
  -5   4 -15    3.04    2.79
   5   4  15   -1.06    1.77
   6  -4  15    5.02    2.95
  -6  -4 -15    9.35    7.05
  -6   4 -15    4.92    4.16
  -7  -4 -15    4.62    2.86
   7  -4  15    5.46    3.37
  -7   4 -15    5.37    4.46
   7   4  15    0.27    2.95
   8  -4  15   38.11    2.27
   8  -4  15   21.94    6.63
  -8   4 -15   20.61    7.61
   8   4  15   33.66    2.27
   7  -5 -15   18.17    1.17
  -7  -5  15   22.38    5.64
   7  -5 -15   20.99    5.12
   7   5 -15   19.75    1.31
   7   5 -15   26.30    6.63
   7   5 -15   20.16    1.24
  -6  -5  15   18.30    4.59
   6  -5 -15   18.17    6.17
   6  -5 -15   15.88    1.00
   6   5 -15    9.46    5.07
   6   5 -15   12.47    0.98
   6   5 -15   13.52    0.97
  -5  -5  15   16.24    4.02
   5  -5 -15   18.02    1.08
   5  -5 -15   17.02    4.11
   5  -5 -15   12.61    2.51
   5   5 -15   18.40    1.12
   5   5 -15   18.18    1.15
   5   5 -15   17.06    5.05
   4  -5 -15    3.18    1.88
   4  -5 -15    3.14    1.31
   4  -5 -15    2.37    0.40
  -4  -5  15   -0.15    1.87
   4   5 -15    2.31    0.41
   4   5 -15    3.59    0.53
   4   5 -15    1.23    2.26
   3  -5 -15   14.02    3.23
   3  -5 -15   17.14    1.07
  -3  -5  15   21.31    4.74
   3  -5 -15   16.10    2.45
   3   5 -15   17.67    1.07
   3   5 -15   16.75    1.04
   3   5 -15   21.87    5.59
   2  -5 -15    3.88    1.44
   2  -5 -15    1.58    0.37
   2  -5 -15    0.40    0.89
   2   5 -15    0.22    1.12
   2   5 -15    1.56    1.40
   2   5 -15    2.35    0.40
   2   5 -15    1.10    0.25
   1  -5 -15   -0.09    0.87
   1  -5 -15    1.43    0.95
   1  -5 -15    1.13    0.32
   1   5 -15    1.06    0.28
   1   5 -15    0.13    1.08
   1   5 -15    0.74    0.21
   1   5 -15    0.41    1.10
   0  -5 -15    4.07    2.02
   0  -5 -15    1.84    1.11
   0  -5 -15    4.83    0.58
   0   5 -15    4.21    2.23
   0   5 -15    3.79    1.56
   0   5 -15    3.58    0.42
   0   5 -15    4.02    0.48
  -1  -5 -15    0.07    1.08
  -1   5 -15    0.87    1.26
  -1   5 -15    0.20    0.17
  -1   5 -15   -0.15    1.36
   1   5  15    0.59    1.14
  -1   5 -15    0.81    0.22
  -2  -5 -15   24.44    5.34
  -2   5 -15   27.89    4.91
  -2   5 -15   31.89    5.50
  -2   5 -15   29.69    1.48
  -2   5 -15   29.60    1.67
   2   5  15   30.09    4.40
  -3  -5 -15    3.86    2.46
  -3   5 -15    2.20    0.50
   3   5  15    0.62    1.39
  -3   5 -15    1.44    1.53
  -3   5 -15    2.87    0.47
  -4  -5 -15   12.24    4.40
   4  -5  15    9.05    3.04
  -4   5 -15   16.55    4.38
  -5  -5 -15    3.04    3.25
   5  -5  15   -0.66    1.65
  -5   5 -15    0.75    2.03
   6  -5  15    1.82    2.28
  -6  -5 -15    6.43    3.04
   6   5  15    2.78    0.60
  -6   5 -15    2.60    3.18
   6   5  15    0.94    2.77
   7  -5  15   15.44    1.35
   7  -5  15   18.93    5.62
   7   5  15   19.06    1.51
  -7   5 -15   11.66    5.02
   7  -6 -15   12.39    4.17
   7  -6 -15   19.28    1.16
  -7  -6  15   11.84    4.32
   7   6 -15   17.77    6.79
   7   6 -15   18.41    1.23
   6  -6 -15   -0.69    2.11
  -6  -6  15   -0.33    1.80
   6  -6 -15    0.89    0.24
   6   6 -15   -0.18    0.10
   6   6 -15    0.76    2.85
   6   6 -15    0.01    0.17
   5  -6 -15    0.86    1.78
  -5  -6  15    0.85    1.75
   5  -6 -15    2.76    0.45
   5   6 -15    4.06    0.49
   5   6 -15    5.27    3.79
   5   6 -15    3.08    0.53
   4  -6 -15    7.68    1.83
   4  -6 -15    7.37    0.66
  -4  -6  15    5.59    2.55
   4  -6 -15    7.81    2.28
   4   6 -15    6.99    0.66
   4   6 -15    6.70    0.65
   4   6 -15    8.94    3.41
   3  -6 -15    0.84    0.28
   3  -6 -15    0.84    1.22
   3  -6 -15    0.80    0.93
  -3  -6  15    0.97    1.32
   3   6 -15    0.34    0.16
   3   6 -15    1.08    0.28
   3   6 -15   -0.63    1.49
   2  -6 -15    0.20    0.94
   2  -6 -15    1.05    0.33
   2  -6 -15    0.25    0.82
   2   6 -15    1.10    0.29
   2   6 -15    0.47    1.07
   2   6 -15    1.54    0.33
   1  -6 -15    9.82    2.29
   1  -6 -15    9.76    2.57
   1  -6 -15    9.80    0.85
   1   6 -15    5.78    2.49
   1   6 -15   10.64    0.78
   1   6 -15   11.16    3.02
   1   6 -15   10.90    0.78
   0  -6 -15    0.76    1.00
   0  -6 -15    0.68    0.85
   0   6 -15    1.76    0.99
  -1  -6 -15    3.19    1.97
  -1   6 -15    3.09    1.60
  -1   6 -15    4.86    0.54
  -1   6 -15    6.80    2.46
  -1   6 -15    3.93    0.45
  -2  -6 -15    1.51    1.48
  -2   6 -15    1.49    1.79
  -2   6 -15    3.02    0.54
  -2   6 -15    4.46    0.48
  -2   6 -15    3.76    2.48
  -3  -6 -15    9.58    3.41
  -3   6 -15   13.64    1.10
  -3   6 -15   17.57    4.98
  -3   6 -15   10.08    2.98
  -3   6 -15   13.67    0.92
  -4  -6 -15   -0.12    1.84
  -4   6 -15   -0.93    1.71
   4   6  15    0.79    2.01
  -5  -6 -15   11.06    4.25
   5  -6  15   22.40    5.36
   5   6  15   18.41    5.22
  -5   6 -15   11.41    4.01
   5   6  15   22.69    1.52
   6  -6  15   -0.10    2.08
   6  -6  15    0.50    0.29
   6   6  15    0.58    0.31
  -6   6 -15    1.05    2.80
   7  -6  15    7.76    0.92
   7  -6  15    5.90    3.27
   7   6  15    9.75    1.50
  -7   6 -15    8.03    4.83
  -7  -7  15    5.69    3.30
   7  -7 -15    5.96    2.88
   7  -7 -15    4.74    0.63
   7   7 -15    4.73    0.90
   7   7 -15    4.69    6.00
   7   7 -15    4.43    0.71
   6  -7 -15    3.70    2.05
  -6  -7  15    5.97    3.21
   6  -7 -15    7.09    1.18
   6   7 -15    6.45    0.68
   6   7 -15    6.58    4.65
   6   7 -15    7.02    0.72
   5  -7 -15    6.62    0.65
  -5  -7  15    8.74    3.24
   5  -7 -15    9.90    2.11
   5   7 -15    7.78    0.73
   5   7 -15    6.35    4.20
   5   7 -15    7.75    0.72
   4  -7 -15    0.30    0.89
   4  -7 -15    1.70    1.31
   4  -7 -15    1.15    0.34
  -4  -7  15    1.19    1.49
   4   7 -15    1.91    0.40
   4   7 -15   -2.11    1.90
   4   7 -15    1.39    0.35
  -3  -7  15    9.66    2.98
   3  -7 -15    9.88    2.18
   3  -7 -15    9.98    2.04
   3  -7 -15   10.51    0.85
   3   7 -15   11.68    0.86
   3   7 -15   10.29    4.00
   3   7 -15   11.33    0.91
   2  -7 -15    1.56    0.34
   2  -7 -15    1.65    1.09
   2  -7 -15    0.68    1.33
   2   7 -15    0.24    1.07
   2   7 -15    2.06    0.42
   2   7 -15    1.48    0.32
   1  -7 -15   18.04    1.18
   1  -7 -15   19.19    2.76
   1  -7 -15   11.20    2.61
   1   7 -15   19.29    4.71
   1   7 -15   12.96    3.51
   1   7 -15   16.20    1.05
   1   7 -15   15.36    1.00
   0  -7 -15    3.43    1.91
   0  -7 -15    2.24    1.18
   0   7 -15    0.68    1.25
   0   7 -15    2.15    0.38
   0   7 -15    0.70    1.25
  -1  -7 -15    8.80    3.19
  -1   7 -15   12.01    3.80
  -1   7 -15   12.65    0.95
  -1   7 -15   17.05    4.36
  -1   7 -15   10.97    0.89
  -2  -7 -15   -0.40    1.52
  -2   7 -15    1.36    1.59
  -2   7 -15    0.72    0.27
  -2   7 -15    1.52    1.54
  -2   7 -15    0.84    0.26
  -3  -7 -15    7.84    2.97
  -3   7 -15    4.34    2.44
   3   7  15    4.54    2.41
  -3   7 -15    3.23    2.80
  -3   7 -15    6.64    0.61
   4   7  15    0.99    1.93
  -4   7 -15    0.52    0.21
  -4   7 -15    0.14    2.07
   5   7  15    3.56    0.70
  -5   7 -15    4.46    3.25
   6  -7  15    8.37    0.95
   6  -7  15    5.46    3.00
   6   7  15    8.96    1.03
  -6   7 -15    6.61    3.69
   7  -7  15    9.88    1.05
   7   7  15   14.45    1.30
   6  -8 -15   20.06    1.19
  -6  -8  15   14.83    4.85
   6   8 -15   18.33    1.25
   6   8 -15   11.72    5.13
   6   8 -15   18.11    1.37
   5  -8 -15    5.57    0.58
  -5  -8  15    0.23    2.45
   5   8 -15    5.64    4.52
   5   8 -15    6.73    0.67
   5   8 -15    6.56    0.67
   4  -8 -15   11.46    0.88
  -4  -8  15    9.18    2.90
   4   8 -15   13.47    0.99
   4   8 -15   12.81    0.93
   4   8 -15    5.30    4.09
   3  -8 -15    0.56    0.26
   3   8 -15   -0.41    1.80
   3   8 -15    0.46    0.17
   3   8 -15    0.89    0.30
   2  -8 -15    1.49    1.21
   2  -8 -15   -0.05    0.16
   2  -8 -15    1.06    0.86
   2   8 -15    1.43    1.93
   2   8 -15    0.45    0.15
   2   8 -15    0.03    0.14
   2   8 -15    0.42    1.76
   1  -8 -15    3.54    1.46
   1  -8 -15    4.33    1.75
   1   8 -15    5.99    0.59
   1   8 -15    6.71    2.55
   1   8 -15    5.69    0.56
   1   8 -15    5.07    2.40
   0  -8 -15    2.28    1.78
   0  -8 -15    1.85    1.00
   0   8 -15    4.04    0.61
   0   8 -15    2.97    2.28
   0   8 -15    4.06    0.47
   0   8 -15    3.43    2.38
  -1  -8 -15    7.83    2.53
  -1   8 -15    7.92    0.75
  -1   8 -15   12.05    3.62
  -1   8 -15    8.38    3.59
  -1   8 -15    9.18    0.75
  -2  -8 -15    1.51    1.67
  -2   8 -15    1.80    1.55
  -2   8 -15    1.44    0.36
  -2   8 -15    0.41    1.32
  -2   8 -15    1.45    0.34
  -3  -8 -15    4.59    2.66
  -3   8 -15    7.79    0.71
  -3   8 -15    8.30    3.37
   3   8  15    7.92    2.87
   4   8  15    3.63    0.64
  -4   8 -15    4.29    3.00
  -4   8 -15    2.48    2.19
  -4   8 -15    3.36    0.56
  -5   8 -15    5.54    4.39
   6  -8  15    5.17    0.78
   6   8  15    3.58    0.68
  -6   8 -15   -0.26    3.09
  -6  -9  15    2.04    2.47
   6  -9 -15    3.46    0.58
   6   9 -15    1.70    0.49
   6   9 -15    1.88    0.40
  -5  -9  15    7.88    3.41
   5  -9 -15   10.81    0.88
   5   9 -15    9.14    4.85
   5   9 -15   11.73    0.99
   5   9 -15   10.69    0.90
   4  -9 -15    1.14    0.36
  -4  -9  15    3.44    2.42
   4   9 -15    1.09    0.28
   4   9 -15    1.30    0.33
   4   9 -15    3.25    3.07
   3  -9 -15    1.73    0.39
   3   9 -15    1.58    0.35
   3   9 -15    1.74    2.45
   3   9 -15    2.32    0.43
   2   9 -15    6.68    3.09
   2   9 -15   12.93    0.96
   2   9 -15    9.84    3.34
   2   9 -15   12.39    1.32
   1  -9 -15    1.89    1.03
   1  -9 -15    3.52    1.30
   1   9 -15    2.22    0.41
   1   9 -15    3.92    2.05
   1   9 -15    3.15    0.48
   1   9 -15    3.19    2.28
   0  -9 -15    2.41    1.65
   0  -9 -15    3.06    1.24
   0   9 -15    2.00    1.60
   0   9 -15    2.44    0.42
   0   9 -15    2.06    0.40
   0   9 -15    5.85    2.84
  -1  -9 -15    6.05    2.19
   1   9  15    3.97    1.76
  -1   9 -15    5.26    0.58
  -1   9 -15    4.69    0.67
  -1   9 -15    2.11    2.61
  -2   9 -15    6.27    0.70
  -2   9 -15    0.75    2.52
  -2   9 -15    5.33    0.58
  -2   9 -15    2.56    2.28
  -3   9 -15   10.55    3.55
  -3   9 -15    6.67    0.66
  -3   9 -15    4.61    2.87
  -4   9 -15    4.78    2.70
  -4   9 -15    2.71    0.47
   4   9  15    3.78    0.66
   5   9  15    5.59    0.92
  -5   9 -15   -1.11    2.98
   5 -10 -15    0.27    0.36
  -5 -10  15    5.63    3.32
   5  10 -15    0.98    0.34
   5  10 -15    0.73    0.27
   5  10 -15   -1.59    3.57
  -4 -10  15    6.70    3.30
   4 -10 -15    7.90    0.73
   4  10 -15    7.46    0.71
   4  10 -15    6.69    0.74
   3  10 -15    3.62    4.37
   2  10 -15    5.55    2.85
   2  10 -15   12.26    0.95
   2  10 -15    9.72    0.78
   2  10 -15   -0.31    3.88
   1  10 -15   -2.59    2.46
   1  10 -15    0.30    0.20
   1  10 -15    2.01    1.71
   1  10 -15    0.15    0.12
   0 -10 -15    0.46    0.76
   0  10 -15   -1.41    1.53
   0  10 -15    1.35    0.34
   0  10 -15    0.79    2.29
   0  10 -15    1.40    0.30
  -1  10 -15    1.81    2.23
  -1  10 -15    0.25    0.23
  -1  10 -15   -1.96    2.40
  -1  10 -15    0.29    0.20
  -2  10 -15    5.85    2.61
  -2  10 -15    6.69    0.71
  -2  10 -15    7.39    0.70
  -2  10 -15    5.00    2.84
  -3  10 -15    1.99    0.43
   3  10  15    2.03    0.50
  -3  10 -15    2.37    2.57
   4  10  15    0.48    0.25
  -4  10 -15   -0.61    2.75
  -4  10 -15    0.29    0.18
   5  10  15    0.49    0.26
   4  11 -15    7.97    0.82
   4  11 -15    7.56    0.71
   3  11 -15   11.22    0.87
   3  11 -15    4.01    4.27
   3  11 -15   10.41    1.18
   2  11 -15    0.59    0.27
   2  11 -15    0.12    0.18
   2  11 -15   -0.20    3.10
   2  11 -15   -0.39    2.12
   1  11 -15    1.59    0.40
   1  11 -15    1.08    1.81
   1  11 -15    2.11    0.41
   1  11 -15    0.31    2.45
   0  11 -15    3.95    0.65
   0  11 -15    3.64    2.47
   0  11 -15    4.20    0.49
  -1  11 -15   -3.53    2.15
  -1  11 -15    0.49    0.23
  -1  11 -15    0.02    0.14
  -2  11 -15    4.38    0.63
  -2  11 -15    5.31    2.94
   2  11  15    6.46    0.68
  -2  11 -15    5.73    0.63
   3  11  15    1.12    0.31
  -3  11 -15    5.14    3.30
  -4  11 -15   16.05    1.26
   4  11  15   16.76    1.38
   2  12 -15    7.97    0.74
   2  12 -15    6.96    0.76
   2  12 -15    3.52    2.82
   1  12 -15   -0.27    2.17
   1  12 -15    0.22    0.20
   1  12 -15    0.12    0.20
   0  12 -15    0.87    0.31
   0  12 -15    1.67    0.37
   0  12 -15   -1.34    2.02
   1  12  15    6.63    0.69
  -1  12 -15    5.69    0.64
  -1  12 -15    5.47    0.62
  -1  12 -15    4.31    2.91
   2  12  15    0.92    0.36
  -2  12 -15    2.09    0.39
  -2  12 -15    0.28    0.24
   8   0 -16   63.68    2.41
   7   0 -16    0.22    0.13
   7   0 -16    0.08    2.71
   7   0 -16   -0.13    0.13
  -7   0  16   -1.38    1.16
   6   0 -16   78.85    9.76
   6   0 -16   83.75    3.39
  -6   0  16   73.51    7.63
   6   0 -16   86.88    3.04
   5   0 -16    0.07    0.11
   5   0 -16   -0.13    0.08
  -5   0  16    0.24    0.87
   4   0 -16    0.23    0.17
   4   0 -16    0.66    0.16
   3   0 -16    0.13    0.11
   3   0 -16    0.26    0.11
   3   0 -16    0.39    0.92
   3   0 -16   -0.50    0.88
   2   0 -16  275.52    9.23
   2   0 -16  265.91   15.44
   2   0 -16  262.85   14.54
   2   0 -16  276.20    8.90
   1   0 -16   -0.51    0.67
   1   0 -16    0.58    0.84
   1   0 -16    0.24    0.12
   1   0 -16    0.35    0.19
   0   0 -16  674.11   20.59
   0   0 -16  598.55   27.00
   0   0 -16  605.82   27.42
  -1   0 -16   -1.39    0.80
  -1   0 -16    0.21    0.17
  -1   0 -16    1.28    1.25
   2   0  16  337.33   18.02
  -2   0 -16  308.98   11.03
  -2   0 -16  309.51   18.53
  -3   0 -16   -0.34    1.75
   3   0  16   -0.31    1.03
   4   0  16   -0.06    1.40
  -5   0 -16    2.50    2.85
  -6   0 -16   73.22   10.45
   6   0  16   81.49    9.44
  -7   0 -16    1.14    3.15
   7   0  16    0.26    0.22
   7   0  16   -0.50    2.82
  -8   0 -16   84.49   12.65
   8   0  16   93.86    4.33
   8   0  16   72.33   11.01
   8  -1 -16    1.44    0.36
   8   1 -16    0.61    0.28
   8   1 -16    1.52    0.36
   7  -1 -16    9.63    4.05
   7  -1 -16    9.74    0.81
   7   1 -16   12.08    0.92
   7   1 -16    2.01    3.49
   7   1 -16    9.23    0.66
  -7   1  16   11.21    3.31
   6  -1 -16   16.72    4.89
   6  -1 -16   26.46    1.44
  -6  -1  16   28.60    4.63
  -6   1  16   26.10    4.08
   6   1 -16   24.81    1.21
   6   1 -16   23.40    1.40
   6   1 -16   22.88    5.72
   5  -1 -16    6.66    0.62
   5  -1 -16    5.57    2.78
  -5  -1  16    8.28    3.05
   5   1 -16    5.97    2.61
   5   1 -16    6.10    0.49
  -5   1  16    4.95    1.78
   5   1 -16    5.78    0.60
  -4  -1  16  170.04   11.76
   4  -1 -16  179.55    5.91
   4  -1 -16  171.09   12.72
   4  -1 -16  191.94    6.36
   4   1 -16  172.51    7.36
   4   1 -16  168.65   13.14
   4   1 -16  176.26    6.03
   3  -1 -16   10.37    2.77
   3  -1 -16   10.90    3.06
   3  -1 -16   13.45    0.70
   3  -1 -16   14.39    0.96
   3   1 -16   11.18    3.48
   3   1 -16   13.91    0.94
   3   1 -16   14.27    0.80
   3   1 -16   12.94    3.10
   2  -1 -16   66.06    6.12
   2  -1 -16   67.02    2.72
   2  -1 -16   59.88    6.58
   2   1 -16   59.84    2.63
   2   1 -16   63.35    6.89
   2   1 -16   65.06    2.45
   2   1 -16   60.57    6.19
   1  -1 -16    0.27    0.17
   1  -1 -16    0.03    0.73
   1   1 -16    0.61    1.01
   1   1 -16    0.26    0.12
   1   1 -16    0.59    0.89
   0  -1 -16    1.92    1.23
   0  -1 -16   -1.16    0.95
   0  -1 -16    0.08    0.13
   0   1 -16    0.07    0.14
   0   1 -16    0.25    0.12
   0   1 -16   -0.31    0.78
   0   1 -16   -0.35    1.05
  -1  -1 -16    0.84    0.28
  -1  -1 -16   -0.44    1.12
  -1   1 -16    0.60    0.89
  -1   1 -16    0.84    0.27
  -1   1 -16    0.14    0.73
  -2  -1 -16   56.02    2.72
  -2  -1 -16   52.04    6.65
   2  -1  16   57.06    6.64
   2   1  16   57.13    6.45
  -2   1 -16   53.91    6.69
  -2   1 -16   53.78    2.64
   3  -1  16    3.47    2.02
  -3  -1 -16    5.64    2.86
   3   1  16    4.57    1.82
  -3   1 -16    7.92    2.91
   4  -1  16  179.80   13.10
  -4  -1 -16  163.28   14.18
  -4   1 -16  176.89   14.75
   4   1  16  174.44   13.09
   5  -1  16    6.64    3.29
  -5  -1 -16    3.35    3.08
  -5   1 -16    0.26    2.22
   5   1  16    5.70    2.49
   6  -1  16   41.40    7.79
  -6  -1 -16   21.89    6.28
  -6   1 -16   23.86    6.88
   6   1  16   35.60    7.12
  -7  -1 -16   10.95    5.61
   7  -1  16    9.88    4.46
   7  -1  16    9.77    1.07
   7   1  16    8.93    4.32
   7   1  16    9.89    1.06
   8  -1  16    0.54    0.40
   8  -1  16   -2.11    3.93
  -8  -1 -16   -7.82    6.11
   8   1  16    0.60    0.37
  -8   1 -16    7.24    5.36
   8  -2 -16    0.80    0.27
   8   2 -16    0.96    0.31
   8   2 -16    0.62    0.25
  -7  -2  16   -0.39    1.57
   7  -2 -16    6.59    3.46
   7  -2 -16    2.93    0.49
   7   2 -16    3.61    0.54
   7   2 -16    1.98    4.14
  -7   2  16    0.31    1.46
   7   2 -16    2.17    0.36
   6  -2 -16    4.40    0.52
  -6  -2  16    3.13    1.81
   6  -2 -16    2.13    2.67
   6   2 -16    4.79    0.47
   6   2 -16    4.46    0.64
  -6   2  16    4.39    2.06
   6   2 -16    1.84    2.88
   5  -2 -16    4.71    2.53
  -5  -2  16    5.97    2.28
   5  -2 -16    6.46    0.63
   5   2 -16    7.15    0.66
   5   2 -16    3.69    2.40
   5   2 -16    6.04    0.53
   4  -2 -16   26.46    4.33
   4  -2 -16   19.61    3.34
   4  -2 -16   24.26    1.33
   4   2 -16   24.49    1.37
   4   2 -16   21.07    4.97
   4   2 -16   23.21    1.19
   3  -2 -16   38.50    1.86
   3  -2 -16   42.30    5.45
   3  -2 -16   38.85    4.54
   3   2 -16   40.58    1.91
   3   2 -16   40.44    1.73
   3   2 -16   32.33    7.04
   2  -2 -16   31.33    4.33
   2  -2 -16   26.49    3.72
   2  -2 -16   29.01    1.52
   2   2 -16   25.99    4.51
   2   2 -16   27.72    1.48
   2   2 -16   28.50    1.34
   2   2 -16   29.56    4.42
   1  -2 -16   44.34    5.07
   1  -2 -16   45.87    5.19
   1  -2 -16   48.52    2.19
   1   2 -16   44.29    2.08
   1   2 -16   41.80    5.29
   1   2 -16   45.08    5.44
   1   2 -16   45.38    1.91
   0  -2 -16    8.01    0.75
   0  -2 -16    7.30    2.29
   0   2 -16    7.27    0.68
   0   2 -16    6.82    2.47
   0   2 -16    8.45    0.61
   0   2 -16    5.16    1.86
  -1  -2 -16   30.29    4.77
  -1  -2 -16   31.58    1.79
  -1   2 -16   31.18    1.75
  -1   2 -16   37.34    4.72
  -1   2 -16   32.86    1.52
  -2  -2 -16   25.56    1.61
  -2  -2 -16   20.83    4.87
  -2   2 -16   16.66    4.37
  -2   2 -16   26.66    1.58
   2   2  16   19.86    4.35
  -3  -2 -16   35.61    6.03
   3  -2  16   31.88    5.22
  -3   2 -16   38.73    6.53
   3   2  16   41.68    5.73
  -4  -2 -16   13.25    4.55
   4   2  16   15.64    4.22
  -5  -2 -16   10.25    4.69
   5  -2  16    4.75    2.69
  -5   2 -16    1.95    2.38
   5   2  16    7.40    2.91
   6  -2  16    4.64    2.84
  -6  -2 -16    6.09    3.16
   6   2  16    5.11    0.86
   6   2  16    8.82    3.73
  -6   2 -16    2.41    2.89
   7  -2  16    2.60    0.62
   7  -2  16    0.36    2.79
  -7  -2 -16    7.25    5.38
   7   2  16    2.06    0.49
  -7   2 -16   -4.03    3.27
   8  -2  16    2.26    0.56
  -8  -2 -16   -2.22    5.21
   8  -2  16   -1.66    3.63
   8   2  16    1.18    0.40
  -8   2 -16   -0.80    5.52
   7  -3 -16   77.96    9.80
   7  -3 -16   79.93    3.25
  -7  -3  16   71.52    8.36
  -7   3  16   66.45    7.02
   7   3 -16   77.69    3.12
   7   3 -16   94.65   11.93
   7   3 -16   81.11    3.37
   6  -3 -16    4.50    0.52
  -6  -3  16    6.68    2.65
   6  -3 -16    0.35    2.12
   6   3 -16    4.34    0.53
   6   3 -16    5.19    0.51
   6   3 -16    6.47    3.70
  -5  -3  16   22.44    4.94
   5  -3 -16   22.88    4.96
   5  -3 -16   28.67    1.51
   5   3 -16   29.64    1.56
   5   3 -16   27.24    1.41
   5   3 -16   38.54    6.38
   4  -3 -16   18.48    3.03
   4  -3 -16   18.38    1.11
  -4  -3  16   13.03    3.28
   4  -3 -16   25.92    5.01
   4   3 -16   16.88    1.09
   4   3 -16   12.52    3.86
   4   3 -16   16.28    0.98
   3  -3 -16   51.39    5.16
   3  -3 -16   58.74    2.50
   3  -3 -16   56.71    6.23
   3   3 -16   61.22    7.17
   3   3 -16   57.33    2.49
   3   3 -16   58.41    2.36
   2  -3 -16    4.72    1.77
   2  -3 -16    2.80    2.13
   2  -3 -16    4.62    0.53
   2   3 -16    4.29    0.48
   2   3 -16    3.80    2.01
   2   3 -16    4.55    0.45
   2   3 -16    2.81    1.27
   1  -3 -16  199.28   12.15
   1  -3 -16  224.98    7.59
   1  -3 -16  210.95   12.34
   1   3 -16  213.26    7.44
   1   3 -16  225.74    7.29
   1   3 -16  201.99   13.52
   1   3 -16  206.57   13.16
   0  -3 -16   -0.62    0.83
   0  -3 -16   -0.09    0.68
   0  -3 -16   -0.23    0.09
   0   3 -16    0.06    0.10
   0   3 -16    0.37    0.80
   0   3 -16   -1.39    0.74
   0   3 -16    0.14    0.11
  -1  -3 -16  215.54   14.07
  -1  -3 -16  226.89    8.17
  -1   3 -16  224.45    7.69
  -1   3 -16  224.68   14.06
  -1   3 -16  223.74    8.02
  -1   3 -16  228.88   14.68
   1   3  16  247.24   14.10
  -2  -3 -16    2.66    1.89
  -2   3 -16    8.41    2.99
   2   3  16    5.86    2.57
  -2   3 -16    6.94    0.74
  -2   3 -16    4.20    1.91
   3  -3  16   66.33    7.30
  -3  -3 -16   52.72    7.29
  -3   3 -16   63.38    8.15
   3   3  16   71.22    7.54
   4  -3  16   14.93    4.33
  -4  -3 -16   12.19    4.34
  -4   3 -16   11.36    3.90
   4   3  16   16.34    4.21
   5  -3  16   21.59    5.22
  -5  -3 -16   20.99    5.89
   5   3  16   26.64    5.62
  -5   3 -16   16.10    4.70
  -6  -3 -16   10.06    5.21
   6  -3  16    9.83    6.21
   6   3  16    6.55    1.04
  -6   3 -16   -0.63    4.20
   7  -3  16   84.21    3.77
   7  -3  16   66.42    9.46
  -7  -3 -16   47.22   10.69
  -7   3 -16   62.67   10.75
   7   3  16   79.94    3.78
   7   3  16   56.33    8.73
  -7  -4  16   15.27    4.17
   7  -4 -16   16.09    1.10
   7  -4 -16   12.31    4.53
   7   4 -16   16.33    1.05
   7   4 -16   15.80    1.16
   7   4 -16    7.65    4.19
  -6  -4  16    3.65    2.25
   6  -4 -16    2.79    2.72
   6  -4 -16    6.52    0.62
   6   4 -16    7.32    0.71
   6   4 -16    7.64    0.66
   6   4 -16    7.70    4.63
   5  -4 -16  126.18    9.47
   5  -4 -16  143.83   11.17
  -5  -4  16  135.88   11.38
   5  -4 -16  142.42    5.34
   5   4 -16  139.50   12.95
   5   4 -16  148.42    5.23
   5   4 -16  157.76    5.42
   4  -4 -16    8.55    2.93
   4  -4 -16    8.81    0.72
   4  -4 -16    7.52    2.01
  -4  -4  16   14.43    3.94
   4   4 -16    6.14    3.00
   4   4 -16    8.34    0.71
   4   4 -16    9.56    0.77
   3  -4 -16  255.81   13.63
   3  -4 -16  280.95   15.37
   3  -4 -16  298.49    9.58
   3   4 -16  279.24    9.60
   3   4 -16  289.83    9.41
   3   4 -16  259.14   17.35
   2  -4 -16    0.42    0.96
   2  -4 -16   -0.44    0.70
   2  -4 -16    0.12    0.15
   2   4 -16    0.52    0.19
   2   4 -16   -0.61    1.53
   2   4 -16    0.76    1.14
   2   4 -16    0.31    0.15
   1  -4 -16   61.83    2.73
   1  -4 -16   55.06    5.64
   1  -4 -16   57.70    5.61
   1   4 -16   61.10    2.59
   1   4 -16   61.63    2.48
   1   4 -16   62.44    7.10
   0  -4 -16   11.54    3.26
   0  -4 -16   11.49    2.87
   0  -4 -16    7.98    0.81
   0   4 -16    9.64    2.94
   0   4 -16   10.25    2.92
   0   4 -16   10.54    0.74
   0   4 -16    9.70    0.79
  -1  -4 -16   48.23    6.11
  -1  -4 -16   49.43    2.50
  -1   4 -16   50.96    2.37
  -1   4 -16   49.64    2.14
   1   4  16   50.72    5.73
  -1   4 -16   48.83    5.92
  -1   4 -16   50.84    6.44
  -2  -4 -16    0.02    1.27
  -2   4 -16   -0.35    1.14
  -2   4 -16   -0.42    0.90
  -2   4 -16    0.22    0.14
   2   4  16   -1.03    0.93
  -3  -4 -16  268.37   17.92
   3   4  16  280.28   16.66
  -3   4 -16  279.74    9.83
  -3   4 -16  267.27   18.00
  -4  -4 -16    3.69    2.66
   4  -4  16    4.41    2.48
  -4   4 -16    2.81    3.15
   5  -4  16  163.78   13.10
  -5   4 -16  159.99   15.06
   6  -4  16    7.33    3.69
  -6  -4 -16    6.33    4.23
   6   4  16    3.18    0.69
  -6   4 -16    0.66    3.77
   6   4  16    6.91    3.42
   7  -4  16   24.86    1.76
  -7  -4 -16   16.54    6.44
   7  -4  16   30.62    7.39
   7   4  16   22.84    1.81
  -7   4 -16   15.24    4.86
   7   4  16   17.95    6.46
   7  -5 -16   24.27    1.38
  -7  -5  16   13.27    3.86
   7  -5 -16   23.10    5.59
   7   5 -16   22.71    1.36
   7   5 -16   15.48    5.96
   7   5 -16   23.31    1.53
   6  -5 -16    1.49    0.35
  -6  -5  16    1.23    2.20
   6  -5 -16    4.09    2.72
   6   5 -16    1.55    0.36
   6   5 -16    4.85    3.67
   6   5 -16    1.20    0.32
   5  -5 -16   22.02    4.60
  -5  -5  16   26.11    5.25
   5  -5 -16   17.65    1.69
   5   5 -16   22.49    1.32
   5   5 -16   21.58    1.25
   5   5 -16   11.96    4.26
   4  -5 -16    0.41    0.20
  -4  -5  16   -0.52    0.92
   4  -5 -16    0.14    0.84
   4  -5 -16    0.11    1.49
   4   5 -16    0.42    0.20
   4   5 -16    1.52    0.34
   3  -5 -16   20.65    3.24
   3  -5 -16   16.08    1.07
   3  -5 -16   14.64    2.97
   3   5 -16   15.87    1.13
   3   5 -16    9.63    3.12
   3   5 -16   15.22    1.28
   2  -5 -16   21.91    3.17
   2  -5 -16   18.73    3.21
   2  -5 -16   25.08    1.44
   2   5 -16   26.51    1.34
   2   5 -16   24.28    4.92
   2   5 -16   23.32    1.33
   2   5 -16   27.63    6.02
   1  -5 -16   21.78    1.37
   1  -5 -16   23.16    3.47
   1  -5 -16   24.36    3.53
   1   5 -16   26.11    5.27
   1   5 -16   27.84    5.52
   1   5 -16   21.81    1.21
   1   5 -16   21.22    1.26
   0  -5 -16    0.85    0.92
   0  -5 -16   -0.12    1.01
   0  -5 -16    0.83    0.28
   0   5 -16    0.86    0.25
   0   5 -16    0.31    0.18
   0   5 -16    0.70    1.05
   0   5 -16   -0.79    1.35
  -1  -5 -16   24.95    5.07
  -1   5 -16   25.26    1.49
  -1   5 -16   25.69    1.35
  -1   5 -16   26.23    5.25
   1   5  16   20.78    3.65
  -1   5 -16   27.32    4.61
  -2  -5 -16   17.01    4.37
  -2   5 -16   15.16    3.89
  -2   5 -16   12.90    4.12
  -2   5 -16   16.61    1.20
  -2   5 -16   15.77    1.23
  -3  -5 -16   16.86    4.71
  -3   5 -16   20.00    1.19
  -3   5 -16   21.34    1.46
  -3   5 -16   18.74    4.22
  -3   5 -16   16.47    4.24
  -4  -5 -16   -0.09    1.48
  -4   5 -16    0.76    2.26
   4   5  16   -1.30    1.50
  -5  -5 -16    5.20    3.46
   5  -5  16   13.96    4.30
  -5   5 -16   11.20    3.82
   5   5  16   22.05    5.78
   6  -5  16    4.54    3.08
  -6  -5 -16   -1.09    3.50
   6   5  16    1.09    2.30
  -6   5 -16    0.10    3.05
   6   5  16    0.05    0.23
   7  -5  16   27.53    1.85
   7  -5  16   14.22    5.79
  -7   5 -16   21.36    6.15
  -7  -6  16   13.70    4.88
   7  -6 -16   18.44    1.20
   7  -6 -16   16.09    4.19
   7   6 -16   28.56    7.21
   7   6 -16   21.46    1.40
   7   6 -16   19.15    1.27
   6  -6 -16   40.85    5.61
  -6  -6  16   30.36    8.65
   6  -6 -16   41.24    1.97
   6   6 -16   39.75    2.01
   6   6 -16   32.35    8.78
   6   6 -16   42.62    2.10
   5  -6 -16   28.85    4.54
  -5  -6  16   29.57    6.08
   5   6 -16   32.87    1.71
   5   6 -16   22.54    5.92
   5   6 -16   34.65    1.77
   4  -6 -16    2.80    1.65
   4  -6 -16    2.99    0.48
   4  -6 -16    1.10    0.95
   4   6 -16   -0.51    1.91
   4   6 -16    1.79    0.36
   4   6 -16    1.74    0.37
   3  -6 -16   20.88    3.83
   3  -6 -16   18.75    1.20
   3  -6 -16   18.12    2.68
   3   6 -16   19.76    1.18
   3   6 -16   12.91    4.39
   3   6 -16   19.02    1.17
   2  -6 -16   50.87    5.80
   2  -6 -16   58.71    5.49
   2  -6 -16   58.62    2.67
   2   6 -16   63.85    2.58
   2   6 -16   57.78    8.21
   2   6 -16   60.53    2.58
   2   6 -16   63.29    7.82
   1  -6 -16    1.77    0.45
   1  -6 -16    1.49    1.67
   1  -6 -16   -0.46    0.95
   1   6 -16    3.78    2.41
   1   6 -16    1.38    0.35
   1   6 -16    1.54    1.77
   1   6 -16    1.31    0.32
   0  -6 -16  198.39   11.45
   0  -6 -16  194.47   12.71
   0  -6 -16  220.22    7.70
   0   6 -16  208.21   14.23
   0   6 -16  224.90    7.45
   0   6 -16  198.76   13.91
  -1  -6 -16    2.13    1.74
  -1   6 -16    1.60    1.99
  -1   6 -16    2.65    0.48
  -1   6 -16    1.56    1.67
  -1   6 -16    2.00    0.37
  -2  -6 -16   61.31    8.33
  -2   6 -16   75.73    7.90
   2   6  16   55.60    8.59
  -2   6 -16   64.01    8.09
  -2   6 -16   75.82    3.22
  -2   6 -16   75.26    2.96
  -3  -6 -16   12.60    3.77
   3   6  16   21.09    4.76
  -3   6 -16   21.19    1.45
  -3   6 -16   23.68    5.56
  -3   6 -16   20.63    1.22
  -3   6 -16   14.45    3.53
  -4  -6 -16   -1.72    1.86
  -4   6 -16    0.02    1.75
   4   6  16    0.81    1.98
   5   6  16   39.17    9.16
   5   6  16   36.44    2.15
  -5   6 -16   27.45    6.37
   6  -6  16   33.05    6.60
   6   6  16   37.49    2.24
  -6   6 -16   26.27    7.08
   7  -6  16   31.08    1.97
  -7   6 -16   15.19    7.17
   7   6  16   25.00    1.90
   6  -7 -16   81.95    3.35
  -6  -7  16   78.76    9.77
   6   7 -16   85.47    3.52
   6   7 -16   79.25   11.52
   6   7 -16   81.75    3.47
   5  -7 -16    9.26    0.86
   5  -7 -16    9.41    2.54
  -5  -7  16    3.10    2.62
   5   7 -16   10.28    0.86
   5   7 -16   10.98    0.89
   5   7 -16   11.79    5.07
   4  -7 -16  196.84   10.35
   4  -7 -16  170.00    9.16
  -4  -7  16  187.07   14.15
   4  -7 -16  201.16    6.89
   4   7 -16  194.66    6.88
   4   7 -16  200.70    6.92
   4   7 -16  190.16   15.82
   3  -7 -16    2.31    1.40
   3  -7 -16    2.04    1.17
   3  -7 -16    1.44    0.34
   3   7 -16    1.78    0.39
   3   7 -16    1.46    0.37
   3   7 -16   -0.10    2.06
   2  -7 -16  113.84    4.32
   2  -7 -16  111.20    7.47
   2  -7 -16  108.92    7.40
   2   7 -16  103.77   10.40
   2   7 -16  111.85    4.18
   2   7 -16  104.71    4.92
   2   7 -16   88.44    9.01
   1  -7 -16   32.75    4.45
   1  -7 -16   42.83    2.17
   1  -7 -16   43.57    4.36
   1   7 -16   42.98    2.00
   1   7 -16   38.87    5.56
   1   7 -16   43.79    6.40
   1   7 -16   43.52    2.00
   0  -7 -16   -0.84    0.72
   0  -7 -16    0.36    1.13
   0   7 -16    0.21    0.18
   0   7 -16   -0.03    0.08
   0   7 -16    1.22    1.87
  -1  -7 -16   43.56    5.95
  -1   7 -16   53.87    2.33
  -1   7 -16   56.58    6.98
  -1   7 -16   51.45    6.81
  -1   7 -16   51.49    2.43
  -2  -7 -16  112.12   10.33
  -2   7 -16  114.83    4.19
   2   7  16   94.96    9.94
  -2   7 -16  112.85    4.42
  -2   7 -16  109.15    9.85
  -2   7 -16   90.95    9.69
  -3  -7 -16    1.89    2.69
   3   7  16    6.35    2.25
  -3   7 -16    5.95    2.68
  -3   7 -16    4.21    0.50
  -3   7 -16    5.45    2.87
  -4   7 -16  194.97   16.29
  -5   7 -16    2.10    3.11
   5   7  16    4.93    0.79
   6  -7  16  105.05    4.50
   6   7  16  102.49    4.59
  -6   7 -16   87.87   12.45
   6  -8 -16   15.47    1.08
  -6  -8  16   10.03    4.45
   6   8 -16   15.95    1.19
   6   8 -16   25.15    7.67
   6   8 -16   17.19    1.25
  -5  -8  16    1.99    1.98
   5   8 -16    6.07    3.64
  -4  -8  16   -2.83    1.46
   4   8 -16   -0.77    2.56
   3  -8 -16    7.48    0.74
   3  -8 -16    7.43    1.51
   3  -8 -16    7.62    1.53
   3   8 -16    7.34    0.70
   3   8 -16    6.47    2.59
   3   8 -16    7.55    0.69
   2  -8 -16   48.36    2.36
   2  -8 -16   48.01    4.07
   2  -8 -16   50.11    4.55
   2   8 -16   44.38    7.16
   2   8 -16   49.91    2.25
   2   8 -16   51.59    2.32
   2   8 -16   38.83    6.26
   1  -8 -16    0.27    1.06
   1  -8 -16    0.13    1.20
   1   8 -16    0.35    0.19
   1   8 -16   -0.10    0.11
   1   8 -16   -1.53    1.63
   0  -8 -16   78.77    7.30
   0  -8 -16   72.37    5.85
   0   8 -16   77.35    3.20
   0   8 -16   70.01    7.90
   0   8 -16   78.43    3.16
   0   8 -16   82.28    8.73
  -1  -8 -16   -0.94    1.65
  -1   8 -16    2.12    0.38
   1   8  16    3.19    1.63
  -1   8 -16    1.74    1.97
  -1   8 -16    0.14    2.06
  -1   8 -16    1.58    0.38
  -2   8 -16   57.45    2.51
  -2   8 -16   55.69    2.66
  -2   8 -16   52.33    6.83
  -2   8 -16   52.92    7.44
  -3   8 -16    8.97    3.78
  -3   8 -16    0.77    2.56
  -3   8 -16    4.19    0.51
  -4   8 -16    2.37    0.46
  -4   8 -16    1.15    3.03
  -4   8 -16    1.85    2.42
   4   8  16    1.09    0.39
  -5   8 -16    1.97    4.19
   6  -8  16   16.77    1.36
   6   8  16   16.85    1.45
  -5  -9  16   13.90    4.69
   5  -9 -16   15.46    1.13
   5   9 -16   15.22    1.10
   5   9 -16   16.55    1.20
  -4  -9  16    1.05    2.12
   4  -9 -16   -0.25    0.20
   4   9 -16   -0.01    0.17
   4   9 -16   -0.13    2.78
   4   9 -16    0.29    0.22
   3  -9 -16    8.95    0.79
   3   9 -16    8.54    0.79
   3   9 -16    7.21    0.71
   3   9 -16   14.92    4.84
   2   9 -16    1.59    1.59
   2   9 -16    3.43    0.57
   2   9 -16    3.69    0.56
   2   9 -16    6.49    3.34
   1  -9 -16   18.94    2.99
   1  -9 -16   19.33    2.46
   1   9 -16   19.85    4.34
   1   9 -16   18.77    1.21
   1   9 -16   17.60    1.33
   1   9 -16   23.57    5.79
   0  -9 -16    0.58    1.05
   0   9 -16   -0.94    1.16
   0   9 -16    0.05    0.13
   0   9 -16    0.16    0.19
  -1   9 -16   21.85    1.37
  -1   9 -16   20.65    1.29
  -1   9 -16   17.25    5.02
  -2   9 -16    2.46    2.94
  -2   9 -16    5.70    0.79
  -2   9 -16    5.51    0.60
  -2   9 -16    2.08    2.40
  -3   9 -16    5.48    3.51
  -3   9 -16    1.61    2.25
  -3   9 -16    5.16    0.58
  -4   9 -16   -0.06    0.14
  -4   9 -16    0.62    2.90
   4   9  16    0.21    0.21
  -5   9 -16    3.58    3.68
  -4 -10  16    0.35    2.21
   4 -10 -16    1.40    0.41
   4  10 -16   -1.21    3.02
   4  10 -16    1.33    0.36
   3  10 -16  116.88    4.59
   3  10 -16  118.57   12.40
   3  10 -16  112.35    4.44
   2  10 -16   25.25    1.50
   2  10 -16   21.13    5.47
   2  10 -16   15.92    4.94
   2  10 -16   24.73    1.41
   1  10 -16   28.82    1.55
   1  10 -16   23.85    5.43
   1  10 -16   28.16    1.61
   1  10 -16   25.14    5.71
   0 -10 -16   22.41    2.78
   0  10 -16   18.38    4.67
   0  10 -16   13.76    4.31
   0  10 -16   22.37    1.35
   0  10 -16   21.29    1.31
  -1  10 -16   22.94    5.71
  -1  10 -16   19.31    1.32
  -1  10 -16   21.67    1.33
  -1  10 -16   18.96    4.75
  -2  10 -16   27.06    1.64
  -2  10 -16   24.51    6.02
  -2  10 -16   30.08    1.64
   3  10  16  129.34    5.00
  -3  10 -16  113.65   12.26
  -3  10 -16  120.02    4.74
  -4  10 -16   11.77    4.31
   3  11 -16   24.96    1.56
   3  11 -16   22.91    1.41
   2  11 -16   24.51    1.46
   2  11 -16   27.32    2.36
   2  11 -16   36.38    7.07
   1  11 -16  141.23    5.24
   1  11 -16  128.74   11.99
   1  11 -16  143.16    5.38
   0 -11 -16    1.06    0.99
   0  11 -16    1.10    0.28
   0  11 -16    2.96    2.79
   0  11 -16    0.87    0.29
  -1  11 -16  135.44   12.74
  -1  11 -16  147.75    5.56
  -1  11 -16  151.34    5.57
   2  11  16   16.41    1.23
  -2  11 -16   16.08    1.18
  -2  11 -16   18.65    1.22
  -2  11 -16   12.25    4.24
   3  11  16   26.42    1.68
   1  12 -16    0.34    0.22
   1  12 -16    0.03    0.18
   0  12 -16    1.95    0.44
   0  12 -16    1.07    0.55
  -1 -12 -16    0.60    1.10
   1  12  16    0.46    0.27
  -1  12 -16    0.09    0.24
  -1  12 -16    0.11    0.19
   7   0 -17    1.04    3.84
  -7   0  17    4.78    2.78
   7   0 -17    7.27    0.71
   7   0 -17    7.45    0.53
   6   0 -17    0.20    0.16
   6   0 -17    0.70    2.92
   6   0 -17    0.03    0.11
  -5   0  17    4.46    1.73
   5   0 -17    4.82    0.41
   5   0 -17    4.72    0.55
   4   0 -17    0.15    0.12
   4   0 -17    0.03    0.08
   3   0 -17   38.10    1.83
   3   0 -17   36.06    1.52
   3   0 -17   26.50    5.49
   3   0 -17   37.19    4.91
   2   0 -17   -0.05    0.06
   2   0 -17   -0.10    1.11
   2   0 -17    0.30    0.98
   2   0 -17    0.15    0.15
   1   0 -17   41.17    1.98
   1   0 -17   39.04    5.00
   1   0 -17   34.44    4.97
   0   0 -17    0.34    0.18
   0   0 -17    0.27    1.03
  -1   0 -17   11.65    0.99
  -1   0 -17   17.15    4.08
   2   0  17    0.53    1.31
  -2   0 -17    0.10    0.14
  -2   0 -17   -0.80    1.48
   3   0  17   40.56    5.79
  -3   0 -17   41.12    7.94
   4   0  17   -1.64    1.00
  -4   0 -17    0.66    2.39
  -5   0 -17   28.51    6.74
   5   0  17   40.18    6.48
   6   0  17    4.66    3.14
  -6   0 -17    0.47    2.86
   7   0  17    6.25    1.05
   7   0  17   -0.32    3.18
  -7   0 -17    3.63    4.34
  -7  -1  17    0.45    1.36
   7  -1 -17    2.80    0.51
   7  -1 -17    1.80    3.80
   7   1 -17    2.97    0.36
   7   1 -17    4.22    0.67
  -7   1  17    1.80    1.68
   7   1 -17    2.28    3.98
   6  -1 -17    3.29    0.51
  -6  -1  17    0.68    1.30
   6  -1 -17    0.98    2.67
   6   1 -17    3.27    3.05
   6   1 -17    3.11    0.35
  -6   1  17    0.45    1.23
   6   1 -17    3.96    0.57
  -5  -1  17   18.66    4.36
   5  -1 -17   18.68    5.19
   5  -1 -17   21.05    1.26
   5   1 -17   18.34    1.00
   5   1 -17   17.35    4.66
   5   1 -17   19.22    1.21
   4  -1 -17    0.34    0.21
   4  -1 -17    1.80    1.55
   4  -1 -17    0.22    1.02
   4  -1 -17    0.50    0.16
   4   1 -17    0.31    0.15
   4   1 -17    0.38    0.18
   4   1 -17   -0.55    1.20
   3  -1 -17   18.92    3.29
   3  -1 -17   16.29    4.12
   3  -1 -17   17.47    1.12
   3   1 -17   18.39    4.61
   3   1 -17   17.97    3.93
   3   1 -17   17.69    0.95
   3   1 -17   16.90    1.27
   2  -1 -17   28.07    1.51
   2  -1 -17   17.95    5.57
   2  -1 -17   25.11    3.85
   2   1 -17   29.69    1.52
   2   1 -17   25.86    3.99
   2   1 -17   27.74    1.28
   2   1 -17   18.48    4.31
   1  -1 -17    7.06    0.69
   1  -1 -17    6.61    2.30
   1   1 -17    4.75    2.02
   1   1 -17    7.46    0.70
   1   1 -17    8.08    0.58
   1   1 -17    7.15    2.47
   0  -1 -17   12.73    3.48
   0  -1 -17   11.58    3.12
   0  -1 -17   15.00    1.11
   0   1 -17   13.50    3.58
   0   1 -17   15.35    0.88
   0   1 -17   19.29    4.53
   0   1 -17   14.50    1.07
  -1  -1 -17   29.95    4.78
  -1  -1 -17   38.16    2.01
  -1  -1 -17   32.63    4.51
  -1   1 -17   32.97    4.85
  -1   1 -17   35.24    5.24
  -1   1 -17   37.06    1.96
  -2  -1 -17    4.24    2.18
  -2  -1 -17    2.25    0.50
  -2   1 -17    3.68    0.64
  -2   1 -17    1.89    1.96
   2   1  17    1.77    1.41
   3  -1  17   20.12    4.48
  -3  -1 -17   18.46    5.17
   3   1  17   22.40    4.98
  -3   1 -17   12.74    3.89
   4  -1  17    0.15    1.69
  -4  -1 -17    2.00    1.93
  -4   1 -17    0.23    2.31
   4   1  17    2.03    2.02
   5  -1  17    0.00    2.15
  -5  -1 -17    2.67    2.44
   5   1  17    1.62    1.88
  -5   1 -17    1.54    2.00
  -6  -1 -17    5.16    4.12
   6  -1  17   -2.71    2.18
  -6   1 -17   -2.11    3.24
   6   1  17    3.81    3.22
   7  -1  17    4.87    4.02
  -7  -1 -17   -1.58    4.87
   7  -1  17    8.32    1.02
   7   1  17    8.62    1.04
  -7   1 -17    8.32    5.52
   7  -2 -17    6.21    0.65
  -7  -2  17    5.32    2.41
   7  -2 -17    0.21    3.77
   7   2 -17    3.01    3.75
   7   2 -17    5.99    0.66
   7   2 -17    6.21    0.55
  -7   2  17    1.48    1.94
   6  -2 -17    9.72    3.68
  -6  -2  17    8.91    2.81
   6  -2 -17   12.68    0.94
   6   2 -17   12.42    0.95
   6   2 -17   11.80    0.92
   6   2 -17    9.32    4.65
   5  -2 -17    2.05    2.03
  -5  -2  17    2.08    1.93
   5  -2 -17    4.11    0.50
   5   2 -17    4.27    0.43
   5   2 -17    4.25    2.55
   5   2 -17    4.26    0.51
   4  -2 -17   37.36    1.81
   4  -2 -17   31.05    5.17
   4  -2 -17   33.02    4.39
   4   2 -17   35.85    1.81
   4   2 -17   34.45    5.89
   4   2 -17   34.87    1.59
   3  -2 -17    3.23    1.69
   3  -2 -17    2.47    1.77
   3  -2 -17    4.20    0.59
   3   2 -17    3.83    0.74
   3   2 -17    3.22    2.94
   3   2 -17    2.69    1.68
   3   2 -17    3.71    0.39
   2  -2 -17    6.32    0.66
   2  -2 -17    3.40    1.57
   2  -2 -17    5.45    2.19
   2   2 -17    6.52    2.91
   2   2 -17    7.37    0.57
   2   2 -17    7.02    0.66
   2   2 -17    7.38    2.60
   1  -2 -17   17.05    3.71
   1  -2 -17   16.07    1.11
   1  -2 -17   12.70    3.36
   1   2 -17   15.61    1.06
   1   2 -17    9.74    3.06
   1   2 -17   16.14    0.92
   1   2 -17   16.95    4.19
   0  -2 -17   11.11    0.96
   0  -2 -17    9.66    2.76
   0   2 -17   10.03    3.10
   0   2 -17   13.44    0.98
   0   2 -17    6.81    2.53
   0   2 -17   11.98    0.77
  -1  -2 -17    8.79    0.87
  -1  -2 -17    8.68    2.92
  -1   2 -17   11.48    0.95
  -1   2 -17   10.28    3.19
  -1   2 -17    9.86    2.81
  -2  -2 -17   33.56    5.43
  -2   2 -17   33.62    1.97
  -2   2 -17   39.81    6.06
   2   2  17   38.50    5.43
   3  -2  17    3.61    2.12
  -3  -2 -17    3.05    2.52
  -3   2 -17    2.53    1.90
   3   2  17   -0.09    1.43
  -4  -2 -17    5.39    3.17
   4  -2  17    4.91    2.40
   4   2  17    8.96    2.97
  -4   2 -17    2.03    2.30
  -5  -2 -17   -0.18    2.43
   5  -2  17    3.24    2.23
   5   2  17    4.78    2.83
  -5   2 -17    3.10    2.56
   6  -2  17    3.97    2.92
  -6  -2 -17    1.20    2.93
  -6   2 -17    1.84    3.21
   7  -2  17    1.42    0.51
   7  -2  17    2.99    3.07
  -7  -2 -17   -1.23    3.60
  -7   2 -17   -1.25    3.93
   7   2  17    1.82    0.77
   7   2  17   -1.15    2.86
   7  -3 -17    1.59    0.36
  -7  -3  17   -1.28    1.85
   7  -3 -17    4.39    4.02
   7   3 -17    9.11    4.04
   7   3 -17    1.44    0.34
  -7   3  17   -0.48    1.62
   6  -3 -17    2.56    2.62
   6  -3 -17    4.50    0.53
  -6  -3  17    4.08    2.44
   6   3 -17    5.27    0.58
   6   3 -17    3.71    3.40
   6   3 -17    5.55    0.53
   5  -3 -17    0.91    0.22
   5  -3 -17   -0.61    1.95
  -5  -3  17   -1.20    1.38
   5   3 -17    0.46    0.18
   5   3 -17    0.69    0.23
   5   3 -17   -1.13    2.42
   4  -3 -17   11.01    3.13
   4  -3 -17    7.26    0.71
  -4  -3  17    7.67    2.59
   4  -3 -17    6.89    2.27
   4   3 -17    8.00    0.73
   4   3 -17   12.51    3.82
   4   3 -17    7.97    0.64
   3  -3 -17   10.80    4.38
   3  -3 -17   10.99    3.49
   3  -3 -17   10.05    0.81
   3   3 -17    8.54    2.81
   3   3 -17    9.47    0.70
   3   3 -17   11.07    0.84
   3   3 -17   13.20    3.81
   2  -3 -17   34.81    4.37
   2  -3 -17   19.83    6.23
   2  -3 -17   35.94    1.83
   2   3 -17   36.01    5.06
   2   3 -17   35.25    5.56
   2   3 -17   37.11    1.81
   2   3 -17   36.25    1.65
   1  -3 -17   -0.07    0.15
   1  -3 -17   -0.34    0.75
   1  -3 -17    0.80    1.14
   1   3 -17    0.18    0.11
   1   3 -17    0.61    1.03
   1   3 -17    0.22    0.12
   1   3 -17   -0.77    0.82
   0  -3 -17   13.97    3.30
   0  -3 -17   19.40    4.30
   0  -3 -17   13.69    1.10
   0   3 -17   16.27    0.95
   0   3 -17   15.34    1.09
   0   3 -17   16.32    4.04
   0   3 -17   16.59    4.21
  -1  -3 -17   -0.13    1.09
  -1  -3 -17    0.37    0.20
  -1   3 -17    0.15    0.14
  -1   3 -17    0.08    1.31
  -1   3 -17    0.39    0.14
  -1   3 -17    0.71    1.32
  -2  -3 -17    2.14    2.02
  -2   3 -17    4.81    2.93
  -2   3 -17    4.98    0.79
  -2   3 -17    4.51    1.94
  -3  -3 -17   -0.77    1.39
  -3   3 -17   -2.86    1.96
   3   3  17    2.07    1.56
   4  -3  17   37.81    7.08
  -4  -3 -17   40.26    6.71
  -4   3 -17   25.68    6.24
   5  -3  17    0.55    2.04
  -5  -3 -17    1.48    3.29
  -5   3 -17   -3.10    1.81
  -6  -3 -17   22.19    6.44
   6  -3  17   16.09    4.80
   6   3  17   25.53    1.78
  -6   3 -17   15.83    5.11
   6   3  17   22.54    5.90
   7  -3  17    4.27    3.58
  -7  -3 -17   -0.51    4.38
   7   3  17    5.62    3.77
  -7   3 -17    7.60    3.77
   7  -4 -17    7.23    0.71
   7  -4 -17    1.92    3.32
  -7  -4  17   11.55    4.43
   7   4 -17   -3.76    3.99
   7   4 -17    7.91    0.70
   7   4 -17    6.77    0.74
   6  -4 -17   11.89    0.93
  -6  -4  17   10.92    3.23
   6  -4 -17    9.47    4.42
   6   4 -17   12.56    0.89
   6   4 -17   11.79    5.00
   6   4 -17   13.54    1.01
   5  -4 -17    0.28    2.11
   5  -4 -17    0.86    0.33
  -5  -4  17    2.07    1.62
   5   4 -17    1.34    0.31
   5   4 -17    3.50    3.31
   5   4 -17    1.35    0.35
   4  -4 -17    6.89    2.13
  -4  -4  17    6.41    2.38
   4  -4 -17    8.08    0.87
   4  -4 -17    7.00    2.85
   4   4 -17    9.21    0.71
   4   4 -17    3.14    2.79
   4   4 -17   10.37    0.82
   3  -4 -17    2.20    1.49
   3  -4 -17    0.31    0.20
   3  -4 -17    0.51    0.82
   3   4 -17   -2.64    1.31
   3   4 -17    0.13    0.16
   3   4 -17    0.90    0.27
   2  -4 -17    0.94    1.14
   2  -4 -17    2.64    1.56
   2  -4 -17    3.32    0.56
   2   4 -17    3.26    0.56
   2   4 -17    1.51    1.87
   2   4 -17    3.31    0.41
   2   4 -17    3.64    2.01
   1  -4 -17    2.76    1.58
   1  -4 -17    7.94    2.45
   1  -4 -17    5.18    0.63
   1   4 -17    7.34    2.85
   1   4 -17    6.27    0.56
   1   4 -17    6.18    0.61
   1   4 -17    3.91    2.10
   0  -4 -17   15.91    1.19
   0  -4 -17   13.52    3.06
   0  -4 -17   12.37    3.27
   0   4 -17   12.58    3.40
   0   4 -17   16.02    1.10
   0   4 -17   17.45    1.02
   0   4 -17   23.35    5.00
  -1  -4 -17   -0.54    1.03
  -1  -4 -17    0.45    0.24
  -1   4 -17    0.48    0.25
  -1   4 -17    0.44    0.15
  -1   4 -17    2.24    1.63
  -1   4 -17    0.23    1.25
  -2  -4 -17   39.74    6.15
  -2   4 -17   53.97    7.25
  -2   4 -17   46.64    5.98
  -2   4 -17   47.37    2.37
  -2   4 -17   42.60    2.22
  -3  -4 -17    0.23    1.65
  -3   4 -17    0.50    0.24
  -3   4 -17   -1.18    1.71
   4  -4  17    5.01    2.26
  -4  -4 -17    4.27    3.99
  -4   4 -17    2.83    2.56
  -5  -4 -17    3.56    3.47
   5  -4  17    2.90    2.64
   5   4  17    3.96    2.85
  -5   4 -17    4.96    3.45
  -6  -4 -17    2.42    3.99
   6  -4  17   10.49    6.25
   6   4  17    7.11    1.01
  -6   4 -17    2.45    5.45
   6   4  17    2.85    2.60
   7  -4  17    0.69    0.35
   7  -4  17   -1.24    3.83
  -7   4 -17    2.43    3.76
  -7  -5  17    4.79    3.53
   7  -5 -17    1.87    4.13
   7   5 -17    6.41    0.72
   7   5 -17   -5.28    5.14
   6  -5 -17    3.90    3.29
  -6  -5  17    1.23    1.94
   6  -5 -17    3.56    0.54
   6   5 -17    3.37    0.55
   6   5 -17    5.41    4.05
   6   5 -17    3.08    0.50
   5  -5 -17   26.26    1.46
  -5  -5  17   18.55    4.39
   5  -5 -17   23.85    6.97
   5   5 -17   26.98    1.45
   5   5 -17   25.76    1.50
   5   5 -17   15.66    5.98
   4  -5 -17    1.81    0.56
   4  -5 -17    1.34    1.90
  -4  -5  17   -0.89    1.23
   4   5 -17    3.52    2.90
   4   5 -17    2.06    0.44
   4   5 -17    2.44    0.43
   3  -5 -17   17.22    3.02
   3  -5 -17   22.36    4.29
   3  -5 -17   23.70    1.38
   3   5 -17   17.05    4.59
   3   5 -17   23.67    1.29
   3   5 -17   22.43    1.34
   2  -5 -17   20.43    1.31
   2  -5 -17   14.86    3.44
   2  -5 -17   17.93    3.05
   2   5 -17   20.23    1.17
   2   5 -17   24.94    5.34
   2   5 -17   20.48    1.43
   2   5 -17   21.13    5.04
   1  -5 -17    1.64    1.17
   1  -5 -17    1.11    0.35
   1   5 -17    1.65    0.37
   1   5 -17    2.09    0.51
   1   5 -17    2.36    1.13
   1   5 -17    1.19    1.80
   0  -5 -17    5.86    2.92
   0  -5 -17   12.47    1.04
   0  -5 -17   10.95    2.53
   0   5 -17   11.11    1.04
   0   5 -17   10.89    3.45
   0   5 -17    8.97    3.28
   0   5 -17   12.57    0.94
  -1  -5 -17   16.62    5.34
  -1   5 -17   17.44    4.92
  -1   5 -17   19.00    7.14
  -1   5 -17   18.27    1.11
  -1   5 -17   19.15    1.28
  -2  -5 -17    1.76    2.04
  -2   5 -17   -0.41    1.35
  -2   5 -17    1.69    1.67
  -2   5 -17    2.06    0.39
  -2   5 -17    1.70    0.46
  -3  -5 -17   13.68    4.05
  -3   5 -17   22.57    5.49
  -3   5 -17   20.89    1.46
   3   5  17   18.51    4.61
  -3   5 -17   15.51    4.26
  -4  -5 -17    1.00    2.48
   4   5  17    2.70    2.43
  -4   5 -17    2.38    2.93
  -5  -5 -17   -3.59    2.09
   5  -5  17    4.45    2.58
  -5   5 -17    0.39    2.10
   5   5  17    4.87    2.90
   6  -5  17    8.34    4.23
  -6   5 -17    0.75    3.69
   6   5  17    7.79    0.92
   7  -5  17    9.10    4.30
   7  -5  17    8.69    1.03
   7   5  17    8.03    1.21
  -7   5 -17    6.91    6.23
  -6  -6  17   -1.57    2.35
   6  -6 -17    3.57    2.63
   6  -6 -17    2.64    0.47
   6   6 -17   -0.14    4.13
   6   6 -17    2.38    0.49
   6   6 -17    2.67    0.58
   5  -6 -17    1.57    0.32
  -5  -6  17   -0.89    2.02
   5  -6 -17    3.82    2.28
   5   6 -17    3.63    3.84
   5   6 -17    1.27    0.33
   5   6 -17    1.43    0.33
  -4  -6  17    2.47    2.36
   4  -6 -17    4.80    0.96
   4  -6 -17    6.50    2.53
   4   6 -17    5.06    3.39
   4   6 -17    5.24    0.57
   4   6 -17    5.20    0.57
   3  -6 -17   30.94    3.73
   3  -6 -17   33.68    1.77
   3  -6 -17   32.13    6.47
   3   6 -17   33.08    1.73
   3   6 -17   34.52    5.93
   3   6 -17   31.67    1.67
   2  -6 -17    3.42    0.61
   2  -6 -17    2.00    1.47
   2  -6 -17    2.47    1.55
   2   6 -17    3.38    2.00
   2   6 -17    4.38    0.52
   2   6 -17    7.62    3.45
   2   6 -17    3.96    0.49
   1  -6 -17   42.10    5.12
   1  -6 -17   52.35    2.46
   1  -6 -17   46.61    5.05
   1   6 -17   46.10    6.68
   1   6 -17   47.74    2.26
   1   6 -17   40.15    6.53
   1   6 -17   53.85    2.25
   0  -6 -17    1.94    1.53
   0  -6 -17    2.00    0.48
   0  -6 -17    1.81    1.09
   0   6 -17    1.56    0.36
   0   6 -17    0.49    1.43
   0   6 -17    1.43    0.31
   0   6 -17    1.52    2.02
  -1  -6 -17    8.73    3.09
  -1   6 -17    7.64    2.64
  -1   6 -17    9.14    0.74
  -1   6 -17    9.27    0.85
  -1   6 -17    2.66    2.44
  -2  -6 -17    1.70    1.85
  -2   6 -17    2.31    1.83
   2   6  17    1.60    2.13
  -2   6 -17    2.01    0.46
  -2   6 -17    2.08    0.42
  -2   6 -17    4.24    2.57
  -3   6 -17   11.90    0.90
  -3   6 -17   11.37    1.08
  -3   6 -17   14.84    4.06
  -3   6 -17   13.09    3.69
   3   6  17   14.23    3.72
  -4   6 -17    1.70    1.92
   4   6  17   -2.47    2.24
  -4   6 -17   -2.05    1.58
   6  -6  17    3.71    3.50
  -6   6 -17   -2.13    2.36
   6   6  17    0.54    0.27
   6  -7 -17    1.18    0.34
  -6  -7  17    2.41    2.31
   6  -7 -17    0.43    2.46
   6   7 -17   -5.08    3.92
   6   7 -17    0.37    0.24
  -5  -7  17   12.47    4.28
   5  -7 -17    7.86    2.47
   5  -7 -17   14.24    1.02
   5   7 -17   12.83    1.00
   5   7 -17   13.73    1.02
   5   7 -17   12.88    4.77
   4  -7 -17    1.55    1.72
   4   7 -17    1.37    0.34
   4   7 -17    1.75    0.35
   4   7 -17   -0.50    2.57
   3  -7 -17    3.24    1.83
   3  -7 -17    4.18    0.65
   3   7 -17    5.71    3.25
   3   7 -17    3.74    0.61
   3   7 -17    3.80    0.57
   2  -7 -17    0.47    0.23
   2  -7 -17    1.78    1.06
   2  -7 -17   -1.04    1.10
   2   7 -17   -1.20    1.63
   2   7 -17    1.61    1.48
   2   7 -17    0.31    0.20
   2   7 -17    0.25    0.19
   1  -7 -17    7.58    0.80
   1  -7 -17    8.57    2.52
   1  -7 -17    7.88    2.64
   1   7 -17    8.42    2.93
   1   7 -17    5.39    1.01
   1   7 -17    6.77    0.65
   1   7 -17    8.27    3.28
   0  -7 -17    0.81    1.08
   0  -7 -17    1.58    1.69
   0   7 -17    2.78    0.47
   0   7 -17    8.02    2.91
   0   7 -17    3.97    0.61
   0   7 -17    1.06    2.15
  -1  -7 -17   26.85    5.66
  -1   7 -17   18.67    4.44
  -1   7 -17   23.77    5.43
  -1   7 -17   27.93    1.63
  -1   7 -17   28.59    1.51
  -2  -7 -17    1.35    2.22
  -2   7 -17   -0.19    1.67
  -2   7 -17    0.41    0.31
  -2   7 -17    0.51    0.20
   2   7  17   -0.14    1.60
  -2   7 -17   -1.59    1.51
  -3   7 -17   17.99    5.13
  -3   7 -17   17.77    4.97
  -3   7 -17   17.91    1.17
  -4   7 -17    3.12    2.27
  -4   7 -17   -1.06    2.20
  -5   7 -17    1.37    2.38
   5   7  17    0.27    0.30
  -5   7 -17   -0.70    2.89
   6   7  17    1.18    0.49
  -6   7 -17   -0.77    4.34
   5  -8 -17    0.68    0.24
   5   8 -17    0.36    0.21
   5   8 -17    2.57    3.41
   4  -8 -17   11.38    1.77
  -4  -8  17   21.45    5.42
   4   8 -17    8.61    4.13
   4   8 -17   17.02    1.16
   4   8 -17   17.59    1.19
   3  -8 -17    0.67    1.31
   3  -8 -17    2.35    0.50
   3   8 -17    1.78    0.39
   3   8 -17    0.24    2.37
   3   8 -17    2.55    0.48
   2  -8 -17    5.71    1.78
   2  -8 -17    8.73    0.84
   2   8 -17    6.86    2.80
   2   8 -17    7.53    0.73
   2   8 -17    9.43    3.75
   2   8 -17    8.66    0.76
   1  -8 -17    4.09    1.62
   1   8 -17    5.72    3.17
   1   8 -17    4.14    0.52
   1   8 -17    1.41    2.42
   1   8 -17    5.14    0.60
   0  -8 -17    2.83    1.59
   0   8 -17    5.98    2.70
   0   8 -17    2.72    2.78
   0   8 -17    7.01    0.72
   0   8 -17    7.26    0.68
  -1   8 -17    3.01    2.15
  -1   8 -17    3.88    2.22
  -2   8 -17    6.35    0.65
  -2   8 -17    5.80    0.71
  -2   8 -17    3.44    3.60
  -3   8 -17    0.65    2.43
  -3   8 -17    3.66    0.55
  -3   8 -17    5.85    3.14
  -4   8 -17    5.79    3.30
  -4   8 -17    2.37    3.23
   5   8  17    7.58    1.12
  -5   8 -17   10.06    4.58
   4   9 -17    2.49    0.48
   3  -9 -17    2.37    0.54
   3   9 -17    2.70    0.48
   3   9 -17    1.93    0.41
   3   9 -17    1.87    1.80
   2   9 -17   21.84    1.33
   2   9 -17   21.26    1.36
   2   9 -17   20.60    5.51
   1  -9 -17    0.40    1.05
   1   9 -17   -1.71    1.54
   1   9 -17    0.49    0.23
   0  -9 -17   25.23    3.25
   0   9 -17   24.11    1.41
   0   9 -17   22.02    1.63
   0   9 -17   22.79    5.90
  -1   9 -17   -0.94    1.69
  -1   9 -17   -0.21    0.18
  -1   9 -17    0.32    0.20
  -1   9 -17   -2.93    1.97
  -2   9 -17    1.70    0.44
  -2   9 -17   -0.59    1.79
  -2   9 -17    0.63    2.64
  -3   9 -17    2.04    2.97
  -3   9 -17    3.37    4.09
   4   9  17   18.10    1.39
  -4   9 -17   13.68    6.26
  -4   9 -17   16.81    1.25
   3  10 -17    0.26    0.18
   3  10 -17   -0.41    0.19
   3  10 -17   -1.69    3.21
   3  10 -17    0.90    2.29
   2  10 -17    1.74    0.41
   2  10 -17    1.54    0.36
   2  10 -17   -2.21    1.78
   2  10 -17    2.37    3.83
   1  10 -17    2.61    1.84
   1  10 -17    0.21    0.18
   1  10 -17    1.05    2.88
   1  10 -17    0.50    0.21
   0 -10 -17   25.37    3.15
   0  10 -17   27.25    1.56
   0  10 -17   30.55    7.06
   0  10 -17   25.95    1.55
   0  10 -17   17.78    5.09
  -1  10 -17    0.29    1.93
  -1  10 -17    3.40    3.92
  -1  10 -17    2.21    0.59
  -1  10 -17    2.86    0.52
  -2  10 -17   33.93    7.25
  -2  10 -17   24.53    1.47
  -2  10 -17   22.93    1.53
   3  10  17    4.74    0.72
  -3  10 -17    2.31    3.32
  -3  10 -17    5.12    0.93
   2  11 -17    0.68    2.85
   2  11 -17    6.75    0.72
   2  11 -17    7.77    0.73
   1  11 -17    0.53    0.23
   1  11 -17    0.68    0.30
   1  11 -17    1.87    2.84
   0 -11 -17    4.01    1.33
   0  11 -17    5.94    1.00
   0  11 -17    4.62    0.70
   0  11 -17    0.30    2.87
  -1 -11 -17    4.98    1.91
  -1  11 -17    6.18    1.03
  -1  11 -17    8.25    1.32
  -1  11 -17    7.01    3.25
  -2  11 -17   -0.14    0.20
  -2  11 -17    0.90    0.32
  -7   0  18    0.95    1.97
   7   0 -18    0.18    0.17
   7   0 -18    0.02    0.20
   6   0 -18    2.77    0.48
   6   0 -18    4.12    3.14
   6   0 -18    2.88    0.32
  -6   0  18    0.41    1.57
   5   0 -18    0.80    2.67
   4   0 -18    8.00    0.73
   4   0 -18    7.94    0.55
   4   0 -18    7.15    2.68
   3   0 -18   -0.99    0.72
   3   0 -18    0.39    0.16
   3   0 -18    0.02    1.43
   2   0 -18    0.59    1.38
   2   0 -18    0.49    0.16
   2   0 -18    0.11    0.90
   1   0 -18   -0.36    0.95
   1   0 -18    0.86    1.03
   1   0 -18    0.15    0.11
   0   0 -18   -1.10    1.06
   0   0 -18    0.57    1.41
   0   0 -18    0.52    0.22
  -1   0 -18    0.07    0.92
  -1   0 -18    0.24    0.13
  -1   0 -18   -0.40    1.58
  -2   0 -18    0.40    0.43
  -3   0 -18    2.55    1.54
   3   0  18   -0.23    1.51
   4   0  18   16.56    4.33
  -4   0 -18   10.32    4.15
  -5   0 -18   -0.86    2.30
   5   0  18   -1.64    1.79
  -6   0 -18    4.57    5.47
   6   0  18    3.64    2.50
  -7   0 -18    6.13    6.08
  -7  -1  18   41.02    7.17
   7  -1 -18   39.74    2.08
   7   1 -18   46.00    2.49
   7   1 -18   40.56    1.78
   6  -1 -18   -0.51    2.89
   6  -1 -18    0.94    0.31
  -6  -1  18    0.96    1.80
   6   1 -18   -2.76    2.58
   6   1 -18    0.85    0.22
   6   1 -18    0.97    0.25
   5  -1 -18   70.87    2.99
   5  -1 -18   66.60    2.50
   5  -1 -18   68.18    8.97
   5   1 -18   66.65    2.64
   5   1 -18   71.90    3.02
   5   1 -18   73.35    9.19
   4  -1 -18    0.05    0.11
   4  -1 -18    0.88    1.99
   4  -1 -18   -1.33    0.94
   4  -1 -18    0.59    0.27
   4   1 -18    0.13    0.14
   4   1 -18    0.27    0.12
   4   1 -18    0.98    1.28
   4   1 -18    1.58    2.09
   3  -1 -18   85.55    3.45
   3  -1 -18   83.43    8.57
   3   1 -18   86.80    3.45
   3   1 -18   81.41    8.79
   3   1 -18   81.75    3.12
   3   1 -18   80.55    7.69
   2  -1 -18    1.78    0.62
   2  -1 -18    2.35    0.98
   2   1 -18    1.14    0.24
   2   1 -18   -1.03    1.22
   2   1 -18    1.41    0.39
   2   1 -18    1.87    1.40
   1  -1 -18    0.90    0.30
   1  -1 -18    1.14    1.46
   1  -1 -18    0.18    0.85
   1   1 -18    0.30    0.18
   1   1 -18    1.86    1.38
   1   1 -18    0.60    0.19
   1   1 -18    1.17    1.45
   0  -1 -18    3.39    0.61
   0  -1 -18    2.24    1.38
   0  -1 -18    4.97    2.10
   0   1 -18    4.40    0.68
   0   1 -18    6.64    2.36
   0   1 -18    1.97    1.74
  -1  -1 -18    0.94    0.33
  -1  -1 -18    1.03    1.60
  -1  -1 -18   -0.19    0.85
  -1   1 -18   -0.53    1.08
  -1   1 -18   -0.05    1.07
  -1   1 -18    0.69    0.27
  -2  -1 -18    2.77    2.13
  -2  -1 -18    0.85    0.35
  -2   1 -18    0.76    0.46
   2   1  18   -0.87    1.07
  -2   1 -18    1.80    2.12
   3  -1  18   76.86    8.28
  -3  -1 -18   71.49    9.24
   3   1  18   94.76    9.16
  -3   1 -18   81.68    9.35
   4  -1  18    2.64    2.34
  -4  -1 -18   -2.85    1.94
   4   1  18   -0.31    1.72
  -4   1 -18   -1.15    2.49
  -5  -1 -18   80.81   10.56
   5  -1  18   77.37    8.87
   5   1  18   61.19    8.38
  -5   1 -18   60.79    9.26
  -6  -1 -18    0.00    4.02
   6  -1  18    1.60    2.58
  -6   1 -18    3.56    3.07
   7  -1  18   44.74    2.66
  -7  -1 -18   33.99    8.53
   7  -1  18   36.51    7.34
   7   1  18   42.69    2.59
   7   1  18   31.74    6.76
  -7   1 -18   30.65    8.06
   7  -2 -18    3.55    6.03
   7   2 -18    2.88    0.51
   7   2 -18    3.23    0.38
   6  -2 -18   22.99    5.53
   6  -2 -18   33.97    1.80
  -6  -2  18   24.88    5.28
   6   2 -18   34.72    7.61
   6   2 -18   33.27    1.57
   6   2 -18   36.99    1.88
   5  -2 -18    0.15    0.14
   5  -2 -18   -0.04    2.41
   5   2 -18   -0.11    0.10
   5   2 -18    0.26    0.15
   5   2 -18   -0.63    2.15
   4  -2 -18   54.38    5.88
   4  -2 -18   68.82   11.01
   4  -2 -18   58.99    2.62
   4   2 -18   60.37    2.40
   4   2 -18   61.67    2.68
   4   2 -18   44.91    7.36
   3  -2 -18   35.67    4.67
   3  -2 -18   34.64    5.31
   3  -2 -18   37.47    1.87
   3   2 -18   35.04    4.90
   3   2 -18   34.23    5.78
   3   2 -18   34.71    1.81
   3   2 -18   34.61    1.60
   2  -2 -18    4.01    1.83
   2  -2 -18    4.16    1.74
   2  -2 -18    5.83    0.98
   2   2 -18    4.75    0.46
   2   2 -18    0.86    1.92
   2   2 -18    5.80    2.34
   2   2 -18    5.54    0.58
   1  -2 -18   26.52    4.26
   1  -2 -18   35.41    1.86
   1  -2 -18   29.36    4.62
   1   2 -18   38.28    5.44
   1   2 -18   32.63    1.54
   1   2 -18   32.42    4.92
   1   2 -18   34.49    1.86
   0  -2 -18   -0.41    0.82
   0  -2 -18   -0.08    0.13
   0   2 -18    0.91    1.45
   0   2 -18    0.28    0.19
   0   2 -18    0.64    1.60
   0   2 -18    0.63    0.20
  -1  -2 -18   30.38    5.00
  -1  -2 -18   31.62    2.13
  -1  -2 -18   26.80    4.19
  -1   2 -18   33.04    1.85
  -1   2 -18   32.86    5.00
  -1   2 -18   29.63    5.88
  -2  -2 -18    4.53    2.37
   2   2  18    5.97    2.41
  -2   2 -18    6.93    2.58
  -2   2 -18    6.84    2.87
  -2   2 -18    7.55    1.22
  -3  -2 -18   27.24    5.96
   3   2  18   19.39    4.53
  -3   2 -18   34.41    7.03
   4  -2  18   56.21    7.35
  -4  -2 -18   49.76    7.72
  -4   2 -18   30.43    7.17
   5  -2  18   -0.82    2.10
  -5   2 -18    1.78    3.13
   6  -2  18   21.76    5.55
  -6  -2 -18   23.33    7.65
   6   2  18   32.92    7.43
  -6   2 -18   23.35    7.76
  -7  -2 -18   -3.22    4.79
   7  -2  18    5.50    3.53
   7  -2  18    0.98    0.47
   7   2  18    0.69    0.40
   7   2  18   -0.38    3.68
  -7   2 -18    4.47    4.34
   7  -3 -18    0.11    0.17
   7   3 -18    0.20    0.18
   7   3 -18    0.15    0.17
  -6  -3  18    2.32    2.03
   6  -3 -18    5.24    3.49
   6   3 -18    6.67    3.85
   5  -3 -18    7.61    3.72
  -5  -3  18    4.91    2.16
   5  -3 -18    5.00    0.71
   5   3 -18    6.18    0.64
   5   3 -18    6.80    0.58
   5   3 -18    6.00    3.65
   4  -3 -18    0.06    0.15
   4  -3 -18   -0.03    1.11
   4  -3 -18   -2.22    1.51
   4   3 -18   -0.28    1.59
   4   3 -18    0.15    0.16
   4   3 -18    0.21    0.17
   3  -3 -18    6.39    0.66
   3  -3 -18    6.21    2.20
   3  -3 -18    6.37    2.79
   3   3 -18    6.52    2.29
   3   3 -18    5.19    0.51
   3   3 -18    5.72    0.62
   3   3 -18    5.02    2.80
   2  -3 -18   52.90    3.18
   2  -3 -18   50.48    5.67
   2   3 -18   56.68    2.29
   2   3 -18   51.60    6.94
   2   3 -18   55.63    2.47
   2   3 -18   46.77    6.14
   1  -3 -18   -0.56    0.67
   1  -3 -18   -0.13    0.93
   1  -3 -18    0.08    0.15
   1   3 -18   -0.08    0.09
   0  -3 -18   14.35    1.11
   0  -3 -18   12.81    3.33
   0  -3 -18    8.03    2.46
   0   3 -18   14.48    0.90
   0   3 -18   14.62    4.18
   0   3 -18    9.74    3.18
   0   3 -18   13.35    1.03
  -1  -3 -18    0.71    1.29
  -1  -3 -18    0.43    0.45
  -1   3 -18   -2.62    1.27
  -1   3 -18    0.37    1.16
  -1   3 -18    0.01    0.17
  -1   3 -18    0.07    0.10
  -2  -3 -18   52.38    7.03
  -2   3 -18   58.27    7.58
  -2   3 -18   54.12    3.10
  -2   3 -18   58.18    6.94
  -3  -3 -18    2.72    2.21
  -3   3 -18    8.90    3.59
  -4  -3 -18    0.68    2.58
   4  -3  18   -1.54    1.82
  -4   3 -18    5.32    3.10
  -5  -3 -18   14.05    4.93
   5  -3  18   14.32    4.68
   5   3  18    3.01    3.70
  -5   3 -18   12.44    4.73
  -6  -3 -18   -0.60    4.68
   6  -3  18    0.14    2.71
   6   3  18    4.33    2.99
  -6   3 -18    2.68    3.60
   7  -3  18    3.95    3.80
  -7   3 -18    0.35    3.96
   7   3  18    0.58    0.34
   6  -4 -18    5.88    0.62
   6  -4 -18    5.84    3.71
  -6  -4  18    6.11    3.07
   6   4 -18    5.16    0.56
   6   4 -18    4.36    0.63
   6   4 -18   -2.30    3.05
   5  -4 -18    1.87    0.39
   5  -4 -18    0.38    2.39
  -5  -4  18    0.77    1.94
   5   4 -18   -0.46    2.76
   4  -4 -18    0.71    2.23
   4  -4 -18    5.09    0.59
   4   4 -18    4.36    2.80
   4   4 -18    5.32    0.54
   4   4 -18    5.25    0.59
   3  -4 -18    6.12    0.64
   3  -4 -18    2.59    1.38
   3  -4 -18    6.89    2.32
   3   4 -18    4.42    0.64
   3   4 -18    4.56    0.49
   3   4 -18    3.87    2.29
   3   4 -18    4.70    3.27
   2  -4 -18    3.24    1.96
   2  -4 -18    2.49    1.48
   2   4 -18    3.40    0.55
   2   4 -18    2.24    2.31
   2   4 -18    2.59    1.86
   2   4 -18    4.19    0.46
   1  -4 -18    2.77    0.58
   1  -4 -18    0.99    1.39
   1  -4 -18    1.43    1.32
   1   4 -18    2.59    0.50
   1   4 -18    0.77    1.90
   1   4 -18    3.85    0.69
   1   4 -18    2.32    1.54
   0  -4 -18    0.75    0.33
   0  -4 -18    3.79    3.11
   0  -4 -18    0.34    0.96
   0   4 -18   -0.67    1.18
   0   4 -18    0.40    0.19
   0   4 -18    0.55    0.20
   0   4 -18   -0.64    1.48
  -1   4 -18    3.64    0.64
  -1   4 -18    2.36    1.90
  -1   4 -18    3.03    0.46
  -1   4 -18    4.06    2.16
  -2  -4 -18    3.95    3.20
  -2   4 -18    2.83    2.06
  -2   4 -18    9.03    3.29
  -2   4 -18    4.71    0.99
  -2   4 -18    4.77    0.52
   2   4  18    1.64    1.96
  -3  -4 -18    3.13    2.69
   3   4  18    4.81    2.72
  -3   4 -18    5.62    2.79
  -3   4 -18    2.43    2.00
  -4  -4 -18    8.16    3.94
  -4   4 -18    4.93    2.28
   4   4  18    1.33    2.09
  -5  -4 -18    0.48    2.24
   5  -4  18    7.36    3.19
   5   4  18    0.12    2.49
  -5   4 -18    1.46    2.69
   6  -4  18    3.50    3.49
   6   4  18    3.74    0.76
  -6   4 -18    5.01    3.95
  -6  -5  18    1.94    2.44
   6  -5 -18    1.82    2.58
   6  -5 -18    1.42    0.38
   6   5 -18    1.21    0.39
   6   5 -18   -0.78    4.33
   6   5 -18    1.96    0.37
   5  -5 -18   10.92    5.36
   5  -5 -18   14.34    1.05
   5   5 -18   17.09    1.18
   5   5 -18   15.55    1.04
   5   5 -18   20.10    5.78
   4  -5 -18   11.42    0.93
   4  -5 -18   12.50    3.57
   4   5 -18   11.82    0.87
   4   5 -18    2.99    3.78
   4   5 -18   12.80    0.97
   3  -5 -18   18.53    4.63
   3  -5 -18   24.65    1.46
   3  -5 -18   20.56    4.35
   3   5 -18   22.58    5.26
   3   5 -18   24.74    1.34
   3   5 -18   20.70    5.32
   3   5 -18   22.95    1.39
   2  -5 -18   66.37    6.40
   2  -5 -18   76.64    7.04
   2  -5 -18   66.00    4.13
   2   5 -18   66.54    8.35
   2   5 -18   83.03    3.25
   2   5 -18   82.63    3.12
   2   5 -18   72.95    8.01
   1  -5 -18    4.11    2.00
   1  -5 -18    8.09    2.41
   1   5 -18    3.98    2.20
   1   5 -18    7.97    0.74
   1   5 -18    4.71    2.64
   1   5 -18    7.17    0.63
   0  -5 -18   50.82    6.45
   0  -5 -18   63.53    3.43
   0  -5 -18   60.49    5.97
   0   5 -18   69.39    8.07
   0   5 -18   53.88    7.12
   0   5 -18   64.51    2.63
  -1  -5 -18    8.45    2.70
  -1   5 -18    5.27    2.51
  -1   5 -18    9.13    0.73
  -1   5 -18    8.30    1.00
  -1   5 -18    7.80    3.43
  -2  -5 -18   71.69    8.67
  -2   5 -18   83.40    3.31
  -2   5 -18   81.45    8.59
   2   5  18   85.82    8.15
  -3  -5 -18   11.59    4.40
   3   5  18   25.24    5.47
  -3   5 -18   10.14    4.16
  -3   5 -18   17.33    4.66
  -3   5 -18   18.01    1.40
  -4  -5 -18    1.28    3.12
   4   5  18    9.20    4.01
  -4   5 -18    9.67    4.81
   6  -5  18   -1.25    3.06
   6   5  18    1.85    0.52
  -6   5 -18    0.66    3.18
   6  -6 -18    2.56    2.65
   6  -6 -18    5.30    0.73
  -6  -6  18    1.03    2.69
   6   6 -18    4.74    0.71
   6   6 -18    5.06    0.59
   6   6 -18    9.15    5.45
   5  -6 -18    0.19    0.19
  -5  -6  18   -1.69    2.17
   5  -6 -18   -0.87    1.89
   5   6 -18    0.30    0.16
   5   6 -18    0.04    0.14
   5   6 -18    0.13    5.02
   4  -6 -18   25.76    1.53
   4  -6 -18   31.35    4.50
   4   6 -18   26.53    1.56
   4   6 -18   13.85    7.83
   4   6 -18   26.71    1.50
   3  -6 -18   36.59    1.93
   3   6 -18   37.21    1.89
   3   6 -18   34.99    1.79
   3   6 -18   31.41    5.40
   2  -6 -18    1.87    1.78
   2  -6 -18    3.67    1.55
   2  -6 -18    3.18    0.60
   2   6 -18    2.48    0.46
   2   6 -18    1.38    2.65
   2   6 -18    2.48    2.32
   2   6 -18    2.78    0.49
   1  -6 -18   43.71    5.39
   1  -6 -18   51.18    2.67
   1  -6 -18   43.36    5.19
   1   6 -18   52.67    6.99
   1   6 -18   47.53    2.30
   1   6 -18   55.66    7.07
   1   6 -18   49.32    2.22
   0  -6 -18    0.01    0.17
   0  -6 -18    0.31    1.08
   0   6 -18    0.28    0.22
   0   6 -18   -0.05    0.12
   0   6 -18    3.47    2.42
  -1  -6 -18   37.20    5.82
  -1   6 -18   48.19    6.43
  -1   6 -18   46.81    2.15
  -1   6 -18   51.38    7.50
  -2  -6 -18    4.04    2.41
   2   6  18    0.30    1.45
  -2   6 -18    1.37    2.08
  -2   6 -18    2.51    0.84
  -2   6 -18    1.79    2.21
  -2   6 -18    2.16    0.41
  -3   6 -18   32.06    6.71
  -3   6 -18   29.38    6.17
  -3   6 -18   29.84    1.63
  -4   6 -18   34.80    8.15
  -5   6 -18   -3.32    2.53
   6   6  18    2.49    0.77
  -6   6 -18    7.04    4.40
   5  -7 -18    2.38    0.48
   5  -7 -18    5.22    3.10
  -5  -7  18   -1.80    1.87
   5   7 -18    2.10    0.43
   5   7 -18   11.13    5.67
   5   7 -18    1.26    0.31
   4  -7 -18    0.46    0.28
   4  -7 -18    1.85    1.47
   4   7 -18    0.33    0.19
   4   7 -18    0.21    0.18
   4   7 -18   -1.82    2.96
   3  -7 -18    3.83    2.31
   3  -7 -18    5.57    0.80
   3   7 -18    4.27    0.52
   3   7 -18    3.39    0.56
   3   7 -18    1.72    2.35
   3   7 -18    6.41    3.56
   2  -7 -18   14.08    3.09
   2  -7 -18   15.40    1.16
   2   7 -18   14.62    1.05
   2   7 -18   14.44    4.55
   2   7 -18   15.55    1.06
   2   7 -18    9.19    3.16
   1  -7 -18    4.31    1.81
   1  -7 -18    2.07    0.45
   1   7 -18    1.96    0.38
   1   7 -18   -0.96    1.86
   1   7 -18    1.99    0.46
   1   7 -18    2.80    2.10
   0  -7 -18    6.98    2.27
   0   7 -18    6.16    0.68
   0   7 -18    5.73    2.87
   0   7 -18    6.50    0.64
  -1   7 -18    3.44    2.53
  -1   7 -18    3.80    0.65
  -1   7 -18    0.58    1.95
  -1   7 -18    3.59    0.58
  -2   7 -18   12.30    0.92
  -2   7 -18   11.28    1.08
  -2   7 -18    8.69    3.35
  -2   7 -18    9.81    3.38
  -3   7 -18    1.53    2.64
  -4   7 -18    0.73    2.70
  -4   7 -18    1.34    2.36
  -5   7 -18    3.18    4.03
   5   7  18    1.60    0.57
  -5  -8  18   -3.54    2.23
   5  -8 -18    2.25    0.48
   5   8 -18    1.00    0.31
   5   8 -18    1.19    0.35
   5   8 -18    0.80    4.07
   4  -8 -18    2.24    0.51
   4   8 -18    2.18    0.46
   4   8 -18    2.30    0.45
   4   8 -18   -0.73    3.32
   3  -8 -18   17.57    2.93
   3  -8 -18   18.45    1.29
   3   8 -18   18.37    4.97
   3   8 -18   15.83    1.15
   3   8 -18   11.56    4.50
   3   8 -18   17.75    1.20
   2  -8 -18    0.54    1.28
   2  -8 -18   -0.25    0.20
   2   8 -18   -2.17    1.40
   2   8 -18    0.53    0.22
   2   8 -18   -1.61    2.24
   1  -8 -18   37.22    4.33
   1   8 -18   39.90    6.85
   1   8 -18   40.18    6.46
   1   8 -18   47.56    2.17
   1   8 -18   45.33    2.20
   0   8 -18    0.54    2.46
   0   8 -18    1.48    1.91
  -1   8 -18   37.81    2.05
  -1   8 -18   24.15    7.27
  -1   8 -18   38.22    1.90
  -1   8 -18   28.74    6.11
  -2   8 -18   -0.19    0.16
  -2   8 -18    0.01    0.13
  -2   8 -18   -0.94    2.25
  -3   8 -18   10.90    4.67
  -3   8 -18   13.11    1.00
  -3   8 -18   12.60    4.50
  -4   8 -18    1.40    3.62
   5   8  18    1.17    0.47
   4  -9 -18    3.45    0.62
   4   9 -18    1.63    0.43
   4   9 -18    2.84    0.53
   3  -9 -18   15.15    1.16
   3   9 -18   15.69    1.13
   3   9 -18   11.90    4.09
   2  -9 -18   21.47    2.80
   2   9 -18   21.71    1.37
   2   9 -18   22.78    1.41
   2   9 -18   22.85    5.82
   1  -9 -18    0.46    1.25
   1   9 -18    0.28    0.16
   1   9 -18    0.67    0.25
   0  -9 -18   62.46    5.53
   0   9 -18   71.89    3.01
   0   9 -18   60.13    9.17
   0   9 -18   62.56    8.34
   0   9 -18   69.64    3.05
  -1   9 -18    0.14    2.23
  -1   9 -18    0.24    0.18
  -1   9 -18    0.26    0.22
  -1   9 -18    2.89    2.48
  -2   9 -18   21.02    1.35
  -2   9 -18   20.04    4.79
  -2   9 -18   23.94    1.54
  -2   9 -18   15.45    4.59
  -3   9 -18    8.14    4.29
  -3   9 -18   13.57    1.20
  -4   9 -18    5.51    6.25
   4   9  18    4.76    0.80
  -4   9 -18    4.87    0.61
   3  10 -18   -2.01    3.88
   3  10 -18    0.90    0.31
   3  10 -18    0.58    0.29
   3  10 -18    0.77    2.67
   2  10 -18    8.79    0.83
   2  10 -18    9.17    4.83
   2  10 -18    8.00    0.77
   2  10 -18    4.22    2.78
   1 -10 -18   -0.03    1.08
   1  10 -18    0.01    0.16
   1  10 -18   -3.40    2.09
   1  10 -18    0.21    2.66
   0 -10 -18   -0.93    1.18
   0  10 -18    0.34    0.20
   0  10 -18    0.64    0.37
   0  10 -18    3.52    3.40
   0  10 -18    1.39    3.03
  -1 -10 -18   -0.03    1.22
  -1  10 -18   -0.52    2.41
  -1  10 -18   -0.37    0.17
  -2  10 -18    7.11    0.80
  -2  10 -18    1.74    2.70
  -2  10 -18    8.09    0.83
   6   0 -19   -0.07    0.17
   6   0 -19   -1.02    3.03
   6   0 -19   -0.23    0.11
   5   0 -19    4.78    0.57
   5   0 -19    4.81    0.41
   5   0 -19    1.54    3.02
   4   0 -19    1.19    1.28
   4   0 -19    0.07    0.09
   4   0 -19    0.42    0.18
   3   0 -19    4.43    2.76
   3   0 -19    5.95    2.43
   3   0 -19    7.31    0.73
   3   0 -19    8.09    0.56
   2   0 -19    0.29    1.20
   2   0 -19   -0.20    0.15
   2   0 -19   -0.85    1.19
   1   0 -19    7.29    0.74
   1   0 -19    4.10    1.95
   1   0 -19    8.29    3.36
   0   0 -19    1.32    1.45
  -1   0 -19   14.88    1.19
  -1   0 -19   10.76    3.28
  -2   0 -19   -0.42    0.17
  -3   0 -19   20.64    5.60
   3   0  19   24.59    5.20
  -4   0 -19   -0.72    2.04
   4   0  19    2.10    2.10
   5   0  19    2.33    3.31
  -5   0 -19    7.64    4.21
   6  -1 -19    1.60    3.26
  -6  -1  19    2.83    2.34
   6  -1 -19    3.61    0.60
   6   1 -19    3.01    0.43
   6   1 -19    4.37    4.07
   6   1 -19    3.41    0.60
   5  -1 -19   11.84    0.95
   5   1 -19   12.72    1.02
   5   1 -19    7.74    3.76
   5   1 -19   11.42    0.74
   4  -1 -19    6.97    3.14
   4  -1 -19    4.96    2.56
   4  -1 -19    3.55    0.57
   4   1 -19    3.82    3.07
   4   1 -19    4.89    0.70
   4   1 -19    2.36    2.07
   4   1 -19    4.28    0.42
   3  -1 -19   15.91    3.61
   3  -1 -19   26.20    5.53
   3  -1 -19   23.74    1.41
   3   1 -19   20.63    1.09
   3   1 -19   19.46    6.34
   3   1 -19   22.66    5.48
   3   1 -19   21.47    1.35
   2  -1 -19    0.13    0.17
   2  -1 -19    0.38    1.47
   2   1 -19   -0.58    1.45
   2   1 -19   -1.09    1.18
   2   1 -19    0.08    0.09
   1  -1 -19    8.10    3.02
   1  -1 -19    6.91    0.75
   1  -1 -19    5.20    2.42
   1   1 -19    2.47    3.70
   1   1 -19    7.88    2.69
   1   1 -19    6.71    0.55
   1   1 -19    6.87    0.70
   0  -1 -19    1.41    1.47
   0  -1 -19    2.02    1.51
   0   1 -19    1.58    1.33
   0   1 -19   -0.91    1.24
  -1  -1 -19    0.06    0.75
  -1  -1 -19    1.25    0.39
  -1  -1 -19    3.32    2.33
  -1   1 -19   -1.53    1.70
  -1   1 -19   -0.32    1.29
  -1   1 -19    1.40    0.40
  -2  -1 -19    1.66    1.29
  -2  -1 -19    0.52    0.32
  -2   1 -19   -0.50    1.25
  -2   1 -19    1.55    1.93
  -2   1 -19    0.68    0.29
   3  -1  19    2.43    1.98
  -3  -1 -19    2.57    2.11
   3   1  19   -0.75    1.58
  -3   1 -19    2.27    2.60
   4  -1  19    7.06    3.13
  -4  -1 -19    4.56    3.22
  -4   1 -19    1.85    3.09
   5  -1  19   -3.31    1.68
  -5  -1 -19   -5.08    2.89
  -5   1 -19   -4.46    2.52
  -6  -1 -19    6.77    4.74
   6  -1  19    3.57    3.08
  -6   1 -19   10.13    5.02
   6   1  19    9.70    4.58
   6  -2 -19    6.75    0.73
   6  -2 -19    1.68    3.57
  -6  -2  19   12.77    3.91
   6   2 -19    5.15    4.32
   6   2 -19    7.82    0.62
   6   2 -19    7.84    0.83
   5  -2 -19    5.25    0.60
   5  -2 -19    3.25    2.81
   5   2 -19    4.59    2.92
   5   2 -19    4.07    0.62
   5   2 -19    6.04    0.54
   4  -2 -19   10.07    0.89
   4   2 -19   13.94    7.58
   4   2 -19   12.79    0.82
   4   2 -19   12.82    0.98
   4   2 -19    8.03    2.88
   3  -2 -19    2.15    0.47
   3  -2 -19    4.88    1.75
   3  -2 -19    1.78    1.75
   3   2 -19    0.68    1.98
   3   2 -19    2.47    0.39
   3   2 -19    2.24    0.44
   3   2 -19    4.64    2.22
   2  -2 -19   11.00    0.93
   2  -2 -19    9.40    3.03
   2  -2 -19    5.87    2.58
   2   2 -19   12.08    0.78
   2   2 -19   11.02    0.93
   2   2 -19   13.02    3.65
   2   2 -19    9.90    3.29
   1  -2 -19    1.15    0.35
   1  -2 -19   -1.02    2.01
   1  -2 -19    3.03    2.07
   1   2 -19    1.09    0.24
   1   2 -19    0.50    0.23
   1   2 -19    0.10    1.26
   1   2 -19    0.54    1.36
   0  -2 -19    9.01    0.90
   0  -2 -19    8.80    3.19
   0   2 -19    8.35    0.65
   0   2 -19    3.13    1.92
   0   2 -19    8.35    0.81
   0   2 -19   11.26    3.65
  -1  -2 -19    1.42    1.54
  -1  -2 -19    2.25    0.50
  -1  -2 -19   -0.67    1.17
  -1   2 -19    3.74    0.70
  -1   2 -19   -0.12    1.70
  -2  -2 -19    5.02    2.48
  -2   2 -19    2.70    1.88
  -2   2 -19    7.35    3.20
  -2   2 -19    7.56    0.83
  -3  -2 -19   14.95    5.55
  -3   2 -19   12.47    4.62
  -4  -2 -19   -1.92    1.59
   4  -2  19    0.43    2.21
   4   2  19   -0.72    1.77
  -4   2 -19   -1.61    2.51
  -5  -2 -19    2.90    3.55
   5  -2  19    6.98    2.99
  -5   2 -19    4.11    3.49
   6  -2  19    1.87    3.69
  -6  -2 -19    8.73    5.67
  -6   2 -19    2.63    5.00
   6   2  19    5.92    3.86
   6  -3 -19    7.47    3.97
   6  -3 -19    8.97    0.82
  -6  -3  19    5.30    3.08
   6   3 -19   11.25    1.56
   6   3 -19    8.95    0.73
   6   3 -19   14.29    5.86
   5  -3 -19    1.84    0.40
   5  -3 -19   -2.98    2.21
   5   3 -19    1.08    0.34
   5   3 -19    1.69    3.15
   5   3 -19    1.66    0.35
   4  -3 -19   -0.44    1.94
   4  -3 -19    1.41    0.40
   4   3 -19    1.07    0.26
   4   3 -19    0.91    0.27
   4   3 -19    3.13    2.70
   4   3 -19   -1.37    1.41
   3  -3 -19    5.71    2.14
   3  -3 -19    2.56    2.33
   3  -3 -19    4.20    0.67
   3   3 -19    4.72    0.47
   3   3 -19    3.40    0.57
   3   3 -19    2.16    2.53
   3   3 -19    5.13    2.46
   2  -3 -19   12.08    0.98
   2  -3 -19   10.95    4.34
   2  -3 -19    6.55    2.25
   2   3 -19    5.25    2.68
   2   3 -19   12.54    0.99
   2   3 -19   11.87    3.60
   2   3 -19   12.64    0.97
   1  -3 -19    0.58    1.50
   1  -3 -19    1.06    0.33
   1  -3 -19   -0.35    1.36
   1   3 -19    0.70    0.25
   1   3 -19    3.27    2.00
   1   3 -19   -0.84    1.27
   0  -3 -19   17.98    4.24
   0  -3 -19   23.11    4.04
   0  -3 -19   24.60    1.57
   0   3 -19   22.68    1.46
   0   3 -19   14.70    4.30
   0   3 -19   15.11    3.98
   0   3 -19   23.48    1.27
  -1  -3 -19    0.65    1.47
  -1  -3 -19    0.69    0.30
  -1   3 -19    0.86    0.29
  -1   3 -19    1.63    2.23
  -1   3 -19   -0.15    0.95
  -1   3 -19    0.94    0.23
  -2  -3 -19   11.01    3.61
  -2   3 -19    8.87    2.83
  -2   3 -19   15.52    4.52
  -2   3 -19   10.43    1.00
   2   3  19    7.68    2.75
  -3  -3 -19    0.39    1.75
  -3   3 -19   -2.99    1.59
  -3   3 -19    2.85    2.45
   3   3  19   -0.25    1.60
  -4  -3 -19   16.12    5.14
  -4   3 -19   21.82    6.37
   4   3  19   24.78    5.55
   5  -3  19    2.80    3.24
  -5  -3 -19   -4.08    2.78
  -5   3 -19    3.65    3.28
   5   3  19    3.63    2.76
   6  -3  19    8.80    4.59
  -6   3 -19   18.65    6.55
   6  -4 -19   31.04    7.05
  -6  -4  19   26.57    5.45
   6  -4 -19   30.71    1.70
   6   4 -19   24.85    8.27
   6   4 -19   30.50    1.77
   6   4 -19   30.53    1.59
   5  -4 -19    6.76    3.30
   5  -4 -19    6.89    0.72
   5   4 -19   10.73    4.40
   5   4 -19    6.85    0.63
   5   4 -19    8.17    0.79
   4  -4 -19   12.46    1.00
   4  -4 -19   11.90    3.82
   4   4 -19   11.87    0.98
   4   4 -19   13.37    0.90
   4   4 -19    9.06    4.52
   3  -4 -19   -0.02    0.16
   3  -4 -19   -0.29    1.50
   3   4 -19    0.12    0.15
   3   4 -19    0.59    1.54
   2  -4 -19    4.99    0.74
   2  -4 -19    2.00    1.66
   2   4 -19    4.60    0.71
   2   4 -19    8.90    3.84
   2   4 -19    2.77    1.84
   2   4 -19    4.44    0.48
   1  -4 -19    0.95    1.28
   1  -4 -19   -0.11    1.17
   1  -4 -19    0.20    0.26
   1   4 -19   -0.21    0.13
   1   4 -19    0.07    0.11
   1   4 -19   -1.65    1.53
   1   4 -19   -1.21    1.26
   0  -4 -19    2.85    1.79
   0  -4 -19    6.97    2.31
   0  -4 -19    4.99    0.78
   0   4 -19    4.10    0.47
   0   4 -19    3.49    0.60
   0   4 -19    0.66    2.08
   0   4 -19    3.09    1.95
  -1  -4 -19   -0.24    1.19
  -1  -4 -19    0.93    0.34
  -1  -4 -19    0.29    1.52
  -1   4 -19    0.57    0.19
  -1   4 -19    0.46    0.25
  -1   4 -19   -0.73    1.33
  -1   4 -19   -2.80    1.48
  -2  -4 -19   -0.23    1.85
  -2   4 -19    1.73    1.90
  -2   4 -19    0.24    2.01
  -2   4 -19    0.47    0.32
   2   4  19    2.02    1.62
  -3  -4 -19   -1.81    2.00
  -3   4 -19    0.16    2.45
  -3   4 -19    1.64    2.62
   3   4  19   -2.19    1.48
  -4  -4 -19    0.59    3.71
  -4   4 -19    6.09    3.59
   4   4  19    3.52    3.61
   5  -4  19    0.43    2.93
  -5   4 -19    7.42    4.65
   6  -4  19    3.80    4.20
  -6   4 -19    6.35    5.29
  -6  -5  19    2.14    2.69
   6  -5 -19    2.61    3.86
   6  -5 -19    2.64    0.51
   6   5 -19    3.80    0.55
   6   5 -19    4.62    0.71
   5  -5 -19    6.00    0.65
   5  -5 -19    1.67    3.04
   5   5 -19    8.55    4.81
   5   5 -19    5.83    0.69
   5   5 -19    5.94    0.59
   4  -5 -19    2.12    2.46
   4  -5 -19    0.50    0.29
   4   5 -19    0.79    3.42
   4   5 -19    0.77    0.25
   4   5 -19    0.29    0.18
   3  -5 -19    9.10    0.85
   3  -5 -19    6.69    2.82
   3   5 -19    3.53    3.31
   3   5 -19    9.16    0.82
   3   5 -19    7.29    0.66
   2  -5 -19   -1.79    1.34
   2   5 -19   -0.20    2.04
   2   5 -19   -1.43    1.58
   1  -5 -19    5.76    2.31
   1  -5 -19    6.78    0.75
   1  -5 -19    3.23    1.88
   1   5 -19    2.67    1.89
   1   5 -19    5.93    0.59
   1   5 -19    5.66    0.64
   1   5 -19    3.11    3.17
   0  -5 -19    1.37    0.43
   0  -5 -19    0.87    1.65
   0  -5 -19    1.75    1.50
   0   5 -19   -0.77    1.41
   0   5 -19    0.95    0.30
   0   5 -19    0.97    0.30
  -1  -5 -19   10.41    3.24
  -1  -5 -19   12.17    3.80
  -1   5 -19    9.20    0.92
  -1   5 -19    6.68    3.30
  -1   5 -19    5.53    2.90
  -1   5 -19    9.80    0.78
  -2  -5 -19   -3.15    1.97
  -2   5 -19    2.32    0.41
  -2   5 -19    2.58    0.56
   2   5  19    1.72    1.98
  -2   5 -19    2.47    2.55
  -2   5 -19   -1.72    1.67
  -3   5 -19    0.45    2.88
  -3   5 -19    3.27    2.39
  -4   5 -19    1.41    2.54
  -4   5 -19    0.06    1.97
  -5   5 -19    0.94    2.81
   5  -6 -19   -0.58    2.26
   5  -6 -19    2.06    0.44
  -5  -6  19    3.01    2.71
   5   6 -19    2.97    0.49
   5   6 -19   -0.51    3.34
   4  -6 -19   -2.94    1.66
   4  -6 -19    0.21    0.27
   4   6 -19    0.83    0.31
   4   6 -19    0.62    0.24
   4   6 -19    3.73    3.99
   3  -6 -19    0.98    0.33
   3  -6 -19   -1.05    1.83
   3   6 -19   -1.13    2.42
   3   6 -19    2.09    0.43
   3   6 -19    1.34    0.36
   3   6 -19    3.65    2.50
   2   6 -19    5.28    2.14
   2   6 -19    3.76    2.64
   1  -6 -19    7.44    0.81
   1  -6 -19    8.77    2.73
   1   6 -19   10.25    3.29
   1   6 -19    7.30    3.26
   1   6 -19    7.98    0.79
   1   6 -19    6.25    0.64
   0  -6 -19    6.85    0.83
   0  -6 -19    4.10    1.98
   0   6 -19    7.71    0.68
   0   6 -19    2.37    2.53
   0   6 -19    7.06    0.76
   0   6 -19    5.77    2.87
  -1  -6 -19    4.47    2.07
  -1   6 -19    3.45    2.37
  -1   6 -19    6.91    0.77
  -1   6 -19    0.46    1.88
  -1   6 -19    5.61    0.58
  -2   6 -19    3.50    0.68
  -2   6 -19    6.15    3.13
  -2   6 -19    6.71    3.12
  -2   6 -19    3.93    0.49
  -3   6 -19   17.70    4.42
  -3   6 -19    8.54    3.82
  -4   6 -19    2.44    2.59
  -5   6 -19   21.01    4.99
  -5   6 -19   11.12    4.50
   5  -7 -19   22.93    1.46
   5  -7 -19   16.84    4.98
   5   7 -19   15.24    5.97
   5   7 -19   22.07    1.41
   5   7 -19   21.65    1.44
   4  -7 -19    6.08    0.72
   4  -7 -19    4.06    2.32
   4   7 -19    5.53    0.63
   4   7 -19    7.50    0.73
   4   7 -19   -3.26    3.22
   3  -7 -19   17.36    3.77
   3  -7 -19   19.42    1.35
   3   7 -19    9.61    4.31
   3   7 -19   18.36    1.24
   3   7 -19   16.97    1.15
   3   7 -19   10.60    3.82
   2  -7 -19    0.17    0.19
   2  -7 -19    0.00    1.54
   2   7 -19    0.11    0.14
   2   7 -19    0.28    0.13
   2   7 -19   -1.76    2.12
   2   7 -19    0.44    2.17
   1  -7 -19    7.29    0.81
   1  -7 -19    5.77    2.64
   1   7 -19    6.44    0.65
   1   7 -19    6.15    0.68
   1   7 -19    7.80    2.73
   1   7 -19    2.78    2.76
   0  -7 -19    0.57    1.19
   0   7 -19    0.01    0.18
   0   7 -19    2.97    2.60
   0   7 -19    0.81    1.83
   0   7 -19    0.02    0.16
  -1  -7 -19    2.35    1.67
  -1   7 -19    0.03    2.53
  -1   7 -19    0.78    0.27
  -1   7 -19    0.43    1.73
  -1   7 -19    0.80    0.35
  -2   7 -19   -1.37    1.62
  -2   7 -19    0.06    0.12
  -2   7 -19    0.23    0.25
  -3   7 -19    2.11    0.44
  -3   7 -19   -1.51    2.95
  -3   7 -19    1.58    3.04
  -4   7 -19    1.01    2.31
  -4   7 -19   -3.47    2.14
   4  -8 -19    9.29    0.91
   4   8 -19    8.66    0.93
   4   8 -19    9.56    0.87
   4   8 -19    8.07    5.89
   3  -8 -19    5.11    2.65
   3  -8 -19    1.22    0.40
   3   8 -19    1.29    0.35
   3   8 -19    0.89    0.32
   3   8 -19   -1.76    2.92
   3   8 -19    0.37    2.79
   2  -8 -19    3.12    0.62
   2  -8 -19    4.29    1.85
   2   8 -19    3.30    0.57
   2   8 -19   -1.32    2.46
   2   8 -19    2.11    0.41
   2   8 -19    4.40    2.74
   1  -8 -19    0.22    1.46
   1   8 -19    3.78    3.46
   1   8 -19   -0.50    1.84
   1   8 -19    1.13    0.34
   1   8 -19    1.12    0.34
   0  -8 -19    2.06    1.95
   0   8 -19    6.02    0.72
   0   8 -19    7.67    3.64
   0   8 -19    6.71    0.67
   0   8 -19    3.52    3.71
  -1  -8 -19   -0.13    1.36
  -1   8 -19    0.75    4.01
  -2   8 -19   -2.89    1.76
  -2   8 -19    0.26    0.16
  -2   8 -19    2.56    2.88
  -2   8 -19    0.64    0.28
  -3   8 -19   13.82    4.93
  -3   8 -19    9.86    1.50
  -4   8 -19    4.84    3.50
   3  -9 -19   -0.02    0.29
   3   9 -19    0.10    2.37
   3   9 -19    0.48    0.27
   3   9 -19    1.02    0.34
   3   9 -19    2.27    5.20
   2  -9 -19    1.05    1.39
   2   9 -19    1.11    0.34
   2   9 -19    1.91    2.92
   2   9 -19    1.25    0.32
   2   9 -19   -1.90    3.41
   1  -9 -19   -1.12    1.27
   1   9 -19    2.34    2.48
   1   9 -19    1.33    0.48
   1   9 -19    2.87    3.15
   1   9 -19    0.70    0.32
   0  -9 -19    0.23    1.40
   0   9 -19    0.88    0.34
   0   9 -19    1.29    0.34
   0   9 -19    3.49    3.34
   0   9 -19    1.15    2.91
  -1  -9 -19    1.29    1.58
  -1   9 -19    1.54    0.45
  -1   9 -19    1.81    0.39
  -1   9 -19    4.24    3.30
  -1   9 -19    1.36    2.86
  -2   9 -19   13.90    4.31
  -2   9 -19   13.44    1.18
  -2   9 -19   14.71    1.25
  -3   9 -19    2.45    2.76
   1  10 -19   10.91    3.91
   1  10 -19    4.74    0.72
   1  10 -19    3.90    0.66
   0 -10 -19   -0.64    1.89
   0  10 -19    0.02    2.42
   0  10 -19    2.15    0.43
   0  10 -19    0.80    0.40
  -1 -10 -19   -1.85    1.18
  -1  10 -19    0.30    0.21
  -1  10 -19   -2.11    2.97
  -1  10 -19    0.71    0.34
   6   0 -20   30.89    1.95
   6   0 -20   31.96    1.38
   5   0 -20    0.34    0.15
   5   0 -20   -0.44    3.23
   5   0 -20   -0.11    0.13
   4   0 -20   27.52    1.29
   4   0 -20   30.24    1.69
   3   0 -20    0.19    0.17
   3   0 -20   -0.58    1.20
   3   0 -20   -0.47    1.81
   2   0 -20    4.92    2.50
   2   0 -20    6.48    0.71
   2   0 -20    2.81    2.14
   1   0 -20    0.53    1.81
   1   0 -20    0.13    0.15
   0   0 -20   11.88    3.35
   0   0 -20    4.73    2.55
   0   0 -20   11.27    1.01
  -1   0 -20    0.40    1.51
  -1   0 -20    0.21    0.21
  -1   0 -20   -0.73    1.15
  -2   0 -20    4.10    2.13
  -2   0 -20    8.70    3.34
  -2   0 -20    9.64    1.00
  -3   0 -20    4.42    2.72
  -4   0 -20   17.23    5.43
   5   0  20   -2.17    2.36
  -6   0 -20   20.23    7.29
   6   0  20   29.22    7.12
   6  -1 -20    0.44    0.32
   6   1 -20    0.24    0.18
   6   1 -20    0.91    0.35
   5  -1 -20    0.55    0.23
   5  -1 -20   -0.95    2.60
   5   1 -20    0.53    0.19
   5   1 -20    0.67    0.25
   5   1 -20   -3.17    2.69
   4  -1 -20   29.40    6.67
   4  -1 -20   36.67    1.91
   4   1 -20   33.53    1.55
   4   1 -20   29.61    6.86
   4   1 -20   35.54    1.89
   3  -1 -20    3.40    0.60
   3  -1 -20    5.38    2.89
   3  -1 -20    6.09    2.71
   3   1 -20    4.99    2.79
   3   1 -20    4.28    0.42
   3   1 -20    6.02    3.24
   3   1 -20    3.92    0.65
   2  -1 -20   35.37    1.93
   2  -1 -20   32.82    4.97
   2   1 -20   22.81    5.45
   2   1 -20   36.11    1.93
   2   1 -20   28.07    5.87
   2   1 -20   36.05    1.59
   1  -1 -20  109.64    4.22
   1  -1 -20   85.49    8.78
   1  -1 -20   78.63    8.09
   1   1 -20   96.48    9.26
   1   1 -20   93.17    9.48
   1   1 -20  107.05    4.16
   0  -1 -20    0.57    0.25
   0  -1 -20    0.92    2.24
   0  -1 -20   -2.04    1.00
   0   1 -20   -0.84    1.53
   0   1 -20    0.07    0.19
   0   1 -20    1.68    2.27
  -1  -1 -20  107.18    4.43
  -1  -1 -20   96.20   15.27
  -1  -1 -20   88.44    8.77
  -1   1 -20  104.42   10.22
  -1   1 -20   99.51    9.64
  -1   1 -20  102.51    4.35
  -2  -1 -20   32.39    2.06
  -2   1 -20   28.81    6.28
  -2   1 -20   23.60    5.19
  -2   1 -20   34.82    2.09
  -3  -1 -20   -1.69    2.83
   3   1  20   -2.29    1.76
  -3   1 -20    4.41    3.18
  -4  -1 -20   27.41    6.62
   4  -1  20   44.00    7.12
   4   1  20   44.64    6.69
  -4   1 -20   31.18    7.37
  -5  -1 -20   -1.08    3.10
   5   1  20    0.95    3.11
  -5   1 -20    0.62    3.53
  -6  -1 -20   -1.35    6.41
   6  -1  20    4.81    4.13
  -6   1 -20    3.02    4.70
   6   1  20    1.37    3.63
   6  -2 -20   14.31    1.28
   6   2 -20   19.86    1.34
   6   2 -20   16.56    0.99
   5  -2 -20   49.29    8.04
   5  -2 -20   57.50    2.69
   5   2 -20   56.08    9.01
   5   2 -20   58.27    2.74
   5   2 -20   59.60    2.40
   4  -2 -20    6.17    4.00
   4  -2 -20    4.15    0.69
   4   2 -20    2.82    5.46
   4   2 -20    0.20    1.88
   4   2 -20    4.73    0.46
   4   2 -20    4.46    0.70
   3  -2 -20   75.24    8.50
   3  -2 -20   83.10    3.43
   3   2 -20   65.48    8.39
   3   2 -20   77.10    3.33
   3   2 -20   75.25    7.97
   2  -2 -20   76.35    3.22
   2  -2 -20   64.50    6.89
   2  -2 -20   66.97    7.55
   2   2 -20   58.12    7.91
   2   2 -20   76.19    8.42
   2   2 -20   71.47    3.12
   2   2 -20   66.62    2.98
   1  -2 -20   40.01    2.14
   1  -2 -20   34.36    5.25
   1  -2 -20   35.12    5.32
   1   2 -20   34.09    5.53
   1   2 -20   31.26    6.37
   1   2 -20   39.77    2.07
   0  -2 -20  151.36   12.04
   0  -2 -20  163.28    6.15
   0   2 -20  141.43   11.95
   0   2 -20  151.18   12.45
   0   2 -20  163.87    6.07
  -1  -2 -20   33.56    2.04
  -1  -2 -20   26.50    5.87
  -1  -2 -20   27.27    4.55
  -1   2 -20   34.14    5.60
  -1   2 -20   41.73    7.90
  -1   2 -20   33.14    1.98
  -2  -2 -20   81.90    9.19
  -2   2 -20   65.90    8.94
  -2   2 -20   81.19    3.65
  -2   2 -20   67.15    7.91
  -3  -2 -20   59.99    8.79
  -3   2 -20   56.91    8.67
   3   2  20   69.53    8.26
  -4  -2 -20    5.11    3.89
   4  -2  20    9.16    3.76
  -4   2 -20   -0.01    2.98
   4   2  20    4.09    2.83
  -5  -2 -20   45.18    9.62
   5   2  20   62.05    9.13
  -5   2 -20   43.74    9.00
  -6   2 -20   14.60    6.30
   6  -3 -20   30.99    1.78
   6   3 -20   30.75    1.79
   6   3 -20   30.38    1.54
   5  -3 -20   35.75    1.94
   5  -3 -20   43.37    7.23
   5   3 -20   36.43    2.00
   5   3 -20   35.31    1.71
   5   3 -20   29.70    7.77
   4  -3 -20    2.89    2.86
   4  -3 -20    2.43    0.49
   4   3 -20    2.34    0.38
   4   3 -20    2.20    0.49
   4   3 -20   -0.64    3.11
   4   3 -20   -0.30    1.63
   3  -3 -20    4.79    2.77
   3  -3 -20    1.43    0.39
   3   3 -20   -1.90    1.80
   3   3 -20    1.17    0.27
   3   3 -20    2.65    2.02
   3   3 -20    1.21    0.32
   2  -3 -20   25.49    5.29
   2  -3 -20   22.77    1.51
   2   3 -20   23.73    1.49
   2   3 -20   27.27    5.70
   2   3 -20   21.44    5.34
   2   3 -20   22.00    1.24
   1  -3 -20   27.71    1.74
   1  -3 -20   28.41    4.64
   1  -3 -20   23.21    4.87
   1   3 -20   33.04    5.48
   1   3 -20   27.06    1.42
   1   3 -20   29.61    1.71
   1   3 -20   20.31    4.63
   0  -3 -20    0.71    1.64
   0  -3 -20    0.64    1.55
   0  -3 -20    0.02    0.22
   0   3 -20    1.11    1.45
   0   3 -20    1.11    2.09
  -1  -3 -20   35.52    2.19
  -1  -3 -20   35.40    6.84
  -1   3 -20   38.82    7.39
  -1   3 -20   38.79    2.15
  -1   3 -20   34.13    5.49
  -2  -3 -20   26.40    6.12
  -2   3 -20   22.05    5.11
  -2   3 -20   16.38    4.79
  -2   3 -20   22.52    1.60
  -3  -3 -20    2.08    1.88
  -3   3 -20   -1.17    2.03
  -3   3 -20   -0.54    1.56
   3   3  20   -0.16    1.69
   4   3  20    2.31    4.33
  -4   3 -20    0.10    3.06
   5  -3  20   26.40    6.52
  -5   3 -20   20.62    5.77
   5  -4 -20    0.09    0.23
   5  -4 -20    0.67    3.28
   5   4 -20    0.15    0.16
   5   4 -20   -4.11    3.06
   5   4 -20    1.26    0.57
   4  -4 -20    0.66    2.58
   4   4 -20    4.35    2.31
   4   4 -20    0.49    0.23
   4   4 -20   -1.24    2.70
   4   4 -20    0.35    0.20
   3  -4 -20   22.75    4.76
   3  -4 -20   25.41    1.59
   3   4 -20   24.31    1.36
   3   4 -20   25.56    1.55
   3   4 -20   32.48    7.47
   3   4 -20   31.23    7.35
   2  -4 -20   30.71    1.77
   2  -4 -20   25.05    5.32
   2   4 -20   27.57    1.46
   2   4 -20   28.83    1.67
   2   4 -20   16.40    4.46
   2   4 -20   27.01    6.18
   1  -4 -20    0.96    1.43
   1  -4 -20    1.09    0.37
   1   4 -20    1.31    0.32
   1   4 -20    1.78    2.42
   1   4 -20    0.27    2.09
   1   4 -20    1.32    0.40
   0  -4 -20   76.95    7.77
   0  -4 -20   87.04   11.39
   0  -4 -20   94.38    4.00
   0   4 -20   88.96    3.47
   0   4 -20   82.78    9.01
   0   4 -20   79.64    8.95
   0   4 -20   91.41    3.83
  -1  -4 -20    0.15    2.07
  -1  -4 -20    2.84    0.69
  -1  -4 -20    2.95    1.99
  -1   4 -20    2.90    2.00
  -1   4 -20    2.45    0.42
  -1   4 -20    0.51    2.11
  -1   4 -20    3.28    0.60
  -2   4 -20   35.88    5.95
  -2   4 -20   31.49    6.58
  -2   4 -20   34.24    2.08
  -3   4 -20   20.01    4.70
  -3   4 -20   24.10    6.61
  -4   4 -20    1.41    3.08
  -4   4 -20    2.22    2.49
  -5   4 -20   11.04    5.31
   5  -5 -20   13.57    4.21
   5  -5 -20    7.45    0.81
   5   5 -20    8.15    4.96
   5   5 -20    9.12    0.89
   5   5 -20    8.12    0.73
   4  -5 -20   72.20   11.22
   4  -5 -20   81.37    3.45
   4   5 -20   71.22   10.03
   4   5 -20   62.10    8.20
   4   5 -20   77.89    3.18
   4   5 -20   82.47    3.44
   3  -5 -20    1.43    2.40
   3  -5 -20    4.10    0.66
   3   5 -20    5.41    3.84
   3   5 -20    1.01    2.97
   3   5 -20    3.08    0.47
   3   5 -20    3.17    0.57
   2  -5 -20   99.84    8.67
   2  -5 -20   92.80    3.97
   2   5 -20   90.09    3.82
   2   5 -20   90.47    9.67
   2   5 -20   79.57    9.60
   2   5 -20   94.10    3.65
   1  -5 -20   29.93    4.71
   1  -5 -20   30.66    1.88
   1   5 -20   29.10    1.75
   1   5 -20   35.34    5.96
   1   5 -20   24.42    5.65
   1   5 -20   31.98    1.63
   0  -5 -20    0.03    0.16
   0  -5 -20   -1.69    1.07
   0   5 -20    1.07    0.33
   0   5 -20    0.50    1.67
   0   5 -20    2.76    2.54
  -1  -5 -20   23.09    6.41
  -1   5 -20   25.81    5.41
  -1   5 -20   34.81    2.01
  -1   5 -20   36.14    1.76
  -1   5 -20   24.88    5.50
  -2   5 -20   64.19    8.77
  -2   5 -20   62.96    8.19
  -2   5 -20   85.76    3.34
  -2   5 -20   83.35    3.71
  -3   5 -20   -1.94    2.61
  -3   5 -20    1.45    2.93
  -4   5 -20   84.21   11.48
  -4   5 -20   67.99   10.08
  -5   5 -20    8.73    5.21
   4  -6 -20    4.65    2.87
   4  -6 -20    4.26    0.65
   4   6 -20    4.40    3.11
   4   6 -20    3.04    0.55
   4   6 -20    3.52    0.54
   4   6 -20    5.42    4.62
   3  -6 -20   24.90    5.25
   3  -6 -20   29.75    1.80
   3   6 -20   30.72    1.73
   3   6 -20   36.21    7.12
   3   6 -20   29.21    1.60
   3   6 -20   23.94    6.71
   2  -6 -20    5.38    0.78
   2  -6 -20    3.81    2.22
   2   6 -20    4.02    0.51
   2   6 -20    3.32    3.06
   2   6 -20    4.26    0.67
   2   6 -20    1.97    2.43
   1  -6 -20    6.91    0.77
   1  -6 -20    7.58    2.49
   1   6 -20    5.03    0.57
   1   6 -20    3.81    2.59
   1   6 -20    4.47    3.59
   1   6 -20    4.22    0.67
   0  -6 -20  100.98    4.29
   0  -6 -20   97.24    8.28
   0   6 -20   81.72    9.59
   0   6 -20   98.46   10.12
   0   6 -20   92.88    3.76
   0   6 -20   92.64    4.00
  -1  -6 -20    4.98    2.30
  -1   6 -20    7.79    0.85
  -1   6 -20    7.25    0.69
  -1   6 -20    5.09    3.04
  -1   6 -20    1.95    2.78
  -2   6 -20    7.19    3.18
  -2   6 -20    5.48    0.61
  -2   6 -20    4.34    3.09
  -2   6 -20    7.77    0.88
  -3   6 -20   20.86    5.65
  -3   6 -20   23.87    7.22
  -4   6 -20    0.95    2.62
  -4   6 -20   -1.37    3.17
   4  -7 -20    2.28    2.60
   4  -7 -20    3.84    0.64
   4   7 -20    3.72    4.63
   4   7 -20    4.18    0.69
   4   7 -20    4.05    0.75
   4   7 -20    7.97    3.38
   3  -7 -20    2.03    0.52
   3  -7 -20    2.87    2.27
   3   7 -20    4.18    4.05
   3   7 -20    6.88    3.53
   3   7 -20    2.25    0.47
   3   7 -20    2.99    0.53
   2  -7 -20    9.04    2.84
   2  -7 -20   13.52    1.15
   2   7 -20   14.77    1.05
   2   7 -20   11.96    4.86
   2   7 -20   15.22    1.13
   2   7 -20    8.57    3.70
   1  -7 -20    1.46    2.72
   1  -7 -20    1.18    0.34
   1   7 -20    1.48    2.39
   1   7 -20    1.31    0.37
   1   7 -20    1.36    3.63
   1   7 -20    1.63    0.43
   0  -7 -20   -0.73    1.25
   0   7 -20    0.81    0.25
   0   7 -20    1.68    2.18
   0   7 -20    0.97    0.34
   0   7 -20    2.46    2.44
  -1  -7 -20    2.08    1.46
  -1   7 -20    1.45    0.35
  -1   7 -20    0.73    2.64
  -1   7 -20    0.38    0.25
  -1   7 -20   -1.33    2.05
  -2   7 -20    8.78    0.78
  -2   7 -20    8.79    0.94
  -2   7 -20    4.95    3.73
  -3   7 -20    5.40    2.95
  -3   7 -20   -1.42    2.83
  -4   7 -20   -0.54    4.01
   3  -8 -20   82.33    7.15
   3  -8 -20   80.33    3.57
   3   8 -20   77.17    3.42
   3   8 -20   60.21   11.19
   3   8 -20   69.92    9.37
   3   8 -20   82.13    3.41
   2  -8 -20   11.92    3.21
   2  -8 -20   10.56    1.03
   2   8 -20    9.01    1.46
   2   8 -20    4.79    3.19
   2   8 -20   11.35    0.98
   2   8 -20    4.54    4.32
   1  -8 -20   20.27    3.93
   1   8 -20   22.40    1.44
   1   8 -20   23.80    5.41
   1   8 -20   24.25    1.55
   1   8 -20   17.69    6.16
   0  -8 -20    0.12    1.83
   0   8 -20    3.04    0.55
   0   8 -20    4.43    3.37
   0   8 -20    4.17    0.68
  -1  -8 -20   14.09    3.32
  -1   8 -20   19.15    5.47
  -1   8 -20   18.47    1.39
  -1   8 -20   19.54    1.47
  -1   8 -20   19.24    5.03
  -2   8 -20   16.19    5.36
  -2   8 -20   11.38    1.00
  -2   8 -20   12.59    1.14
  -2   8 -20    8.54    3.71
  -3   8 -20   79.27    3.42
  -3   8 -20   71.30   10.23
   1  -9 -20   96.71    8.03
   1   9 -20  114.53   12.41
   1   9 -20   98.95   11.11
   1   9 -20  105.33    4.26
   1   9 -20  108.22    4.37
   0  -9 -20    1.79    1.92
   0   9 -20    0.33    3.33
   0   9 -20    0.16    0.22
   0   9 -20   -3.60    2.35
   0   9 -20    0.30    0.21
  -1  -9 -20  100.20    8.21
  -1   9 -20  111.42    4.44
  -1   9 -20  113.38   12.37
  -1   9 -20  113.68    4.68
  -1   9 -20  113.48   15.34
   5   0 -21    1.23    0.25
   5   0 -21    0.76    0.33
   5   0 -21    0.42    3.59
   3   0 -21   26.65    1.62
   3   0 -21   18.46    5.03
   2   0 -21    0.62    1.78
   2   0 -21    1.14    1.85
   1   0 -21   56.36    7.07
   1   0 -21   59.19    2.85
   1   0 -21   57.34    7.16
   0   0 -21   -0.11    0.16
   0   0 -21   -1.72    1.49
   0   0 -21    1.31    1.52
  -1   0 -21    7.87    3.21
  -1   0 -21    9.97    3.82
  -1   0 -21   11.09    1.11
  -2   0 -21    0.94    1.73
  -2   0 -21   -1.33    1.71
  -2   0 -21    0.37    0.23
  -3   0 -21    2.81    2.97
   4   0  21    0.98    2.76
  -4   0 -21    1.51    3.14
  -5   0 -21   18.17    5.74
   5   0  21   15.92    4.75
   5  -1 -21   26.67    7.08
   5  -1 -21   27.06    1.62
   5   1 -21   27.48    7.74
   5   1 -21   23.96    1.34
   4  -1 -21    1.19    0.32
   4  -1 -21    0.61    3.20
   4   1 -21    0.53    3.07
   4   1 -21    1.28    0.36
   4   1 -21    1.60    0.30
   3  -1 -21   10.44    0.94
   3  -1 -21    4.10    2.69
   3   1 -21    6.60    3.09
   3   1 -21   10.33    0.92
   3   1 -21    9.47    0.68
   2  -1 -21    6.18    0.73
   2   1 -21    6.98    2.42
   2   1 -21    4.69    2.99
   2   1 -21    6.06    0.73
   2   1 -21    6.18    0.54
   1  -1 -21    2.07    0.50
   1  -1 -21   -0.62    2.24
   1  -1 -21    1.54    1.79
   1   1 -21    1.77    0.45
   1   1 -21    1.03    1.85
   1   1 -21    5.22    2.51
   0  -1 -21    1.35    1.81
   0  -1 -21    1.33    1.63
   0  -1 -21    0.55    0.30
   0   1 -21    1.87    2.72
   0   1 -21    1.05    2.15
   0   1 -21    0.92    0.36
  -1  -1 -21   29.00    5.97
  -1  -1 -21   35.48    2.11
  -1   1 -21   25.58    5.15
  -1   1 -21   34.72    2.07
  -1   1 -21   29.85    6.53
  -2  -1 -21    2.43    0.60
  -2  -1 -21    1.73    2.27
  -2  -1 -21   -1.66    1.38
  -2   1 -21    2.01    0.63
  -2   1 -21    1.92    2.16
  -2   1 -21    7.83    3.74
  -3  -1 -21   46.20    7.70
  -3   1 -21   45.62   12.42
   4  -1  21    2.05    3.89
  -4  -1 -21    4.32    3.33
  -4   1 -21    9.31    4.93
   4   1  21   11.21    3.75
   5  -1  21    2.93    3.31
  -5   1 -21    0.98    3.51
   5  -2 -21    1.66    0.41
   5  -2 -21    3.14    3.64
   5   2 -21    1.09    0.35
   5   2 -21   -0.39    4.86
   5   2 -21    2.21    0.35
   4  -2 -21   22.43    1.44
   4   2 -21   20.65    1.38
   4   2 -21   19.42    1.12
   4   2 -21   16.16    5.19
   3  -2 -21   19.53    1.33
   3  -2 -21   19.87    5.08
   3   2 -21   17.70    1.28
   3   2 -21   14.82    4.18
   3   2 -21   13.85    3.86
   3   2 -21   18.16    1.05
   2  -2 -21    1.63    0.46
   2  -2 -21    2.79    2.21
   2   2 -21    1.09    0.37
   2   2 -21    1.77    1.73
   2   2 -21    1.88    2.62
   2   2 -21    2.00    0.36
   1  -2 -21   17.12    1.32
   1  -2 -21   14.53    4.40
   1   2 -21   16.77    1.01
   1   2 -21   12.16    3.69
   1   2 -21   15.51    1.22
   1   2 -21    9.91    4.08
   0  -2 -21   25.29    1.70
   0  -2 -21   25.29    5.69
   0   2 -21   22.02    5.32
   0   2 -21   25.51    1.68
   0   2 -21   25.23    6.06
  -1  -2 -21    3.61    2.69
  -1  -2 -21    1.05    0.40
  -1  -2 -21    1.60    1.87
  -1   2 -21    1.14    0.39
  -1   2 -21    1.17    2.43
  -1   2 -21    2.45    2.42
  -2  -2 -21   18.22    4.60
  -2  -2 -21   13.52    3.55
  -2   2 -21   31.36    7.38
  -2   2 -21   24.76    1.71
  -3  -2 -21    2.79    3.76
  -3   2 -21    2.84    3.02
  -3   2 -21    7.51    3.61
   3   2  21    5.72    3.15
  -4   2 -21    6.68    4.49
   5  -3 -21    1.35    0.37
   5  -3 -21    3.08    3.94
   5   3 -21    0.68    0.26
   4  -3 -21    6.95    0.79
   4  -3 -21   10.09    3.97
   4   3 -21   10.91    4.47
   4   3 -21    8.74    0.85
   4   3 -21    8.11    0.68
   3  -3 -21   -2.82    1.84
   3  -3 -21    0.41    0.23
   3   3 -21    0.68    2.06
   3   3 -21    1.45    0.36
   3   3 -21   -0.07    1.99
   3   3 -21    0.85    0.24
   2  -3 -21   39.43    6.07
   2  -3 -21   49.52    2.42
   2   3 -21   41.63    2.24
   2   3 -21   42.67    1.97
   2   3 -21   42.52    6.51
   2   3 -21   39.14    6.77
   1  -3 -21    0.36    0.28
   1  -3 -21   -1.13    1.38
   1   3 -21    0.29    0.23
   1   3 -21    5.11    2.79
   1   3 -21    0.30    2.50
   1   3 -21    0.22    0.14
   0  -3 -21   57.37    2.89
   0  -3 -21   54.71    6.80
   0   3 -21   56.63    7.45
   0   3 -21   54.93    2.75
   0   3 -21   51.92    2.37
   0   3 -21   56.62    7.43
  -1  -3 -21    0.04    0.21
  -1   3 -21    1.76    1.89
  -1   3 -21    0.06    0.17
  -1   3 -21   -2.03    1.65
  -2   3 -21    0.77    2.64
  -2   3 -21    5.51    2.64
  -2   3 -21    4.52    0.80
  -3   3 -21    2.68    3.00
  -3   3 -21   -1.80    2.45
  -4   3 -21   10.32    5.01
  -5   3 -21   -0.78    3.61
   5  -4 -21    1.03    0.34
   5  -4 -21    1.35    4.46
   5   4 -21    1.57    0.33
   5   4 -21    0.91    0.34
   4  -4 -21   32.15    6.39
   4  -4 -21   40.60    2.13
   4   4 -21   35.63    2.26
   4   4 -21   36.75    8.06
   4   4 -21   39.71    1.87
   3  -4 -21    6.46    0.89
   3  -4 -21    2.55    2.66
   3   4 -21    2.29    2.46
   3   4 -21    2.87    3.06
   3   4 -21    6.36    0.60
   3   4 -21    6.44    0.72
   2  -4 -21    7.08    0.82
   2  -4 -21   10.69    3.45
   2   4 -21    8.51    0.83
   2   4 -21    4.28    3.02
   2   4 -21    8.31    0.70
   2   4 -21   11.41    3.74
   1  -4 -21    8.25    3.00
   1  -4 -21    7.54    0.83
   1   4 -21    6.09    0.73
   1   4 -21    6.70    0.63
   1   4 -21    4.29    2.60
   1   4 -21    8.58    3.54
   0  -4 -21   18.27    1.41
   0  -4 -21    8.70    3.10
   0   4 -21   15.07    1.24
   0   4 -21   18.74    4.42
   0   4 -21   15.96    1.06
   0   4 -21   18.28    4.85
  -1  -4 -21    2.50    2.14
  -1  -4 -21    2.02    0.61
  -1   4 -21    4.51    3.38
  -1   4 -21    3.00    0.48
  -1   4 -21    5.95    3.36
  -1   4 -21    2.42    0.54
  -2   4 -21   13.25    4.29
  -2   4 -21   14.38    4.08
  -3   4 -21    8.14    4.35
  -3   4 -21    6.61    3.68
  -4   4 -21    4.61    4.52
  -4   4 -21   10.07    4.51
   4  -5 -21    4.75    0.74
   4  -5 -21    7.01    3.52
   4   5 -21   -1.45    3.99
   4   5 -21    4.87    0.55
   4   5 -21    4.69    0.72
   3  -5 -21    5.00    0.79
   3  -5 -21    6.11    3.22
   3   5 -21    3.17    0.58
   3   5 -21    5.29    3.64
   3   5 -21    2.26    2.67
   3   5 -21    4.75    0.54
   2  -5 -21    3.94    0.70
   2  -5 -21    0.53    2.02
   2   5 -21    3.41    3.26
   2   5 -21    4.94    0.53
   2   5 -21    4.27    0.72
   2   5 -21    3.27    4.82
   1  -5 -21    9.07    0.95
   1  -5 -21    8.13    3.08
   1   5 -21   10.24    0.93
   1   5 -21    7.10    4.09
   1   5 -21   10.78    4.38
   1   5 -21   11.19    0.86
   0  -5 -21   16.79    3.81
   0  -5 -21   15.77    1.37
   0   5 -21   19.52    5.30
   0   5 -21   16.37    1.29
   0   5 -21   14.75    4.57
   0   5 -21   17.72    1.14
  -1  -5 -21   14.10    3.93
  -1   5 -21   22.31    1.58
  -1   5 -21   24.45    1.37
  -1   5 -21   21.95    5.51
  -1   5 -21   13.81    4.30
  -2   5 -21    3.72    3.00
  -3   5 -21   11.64    4.20
  -3   5 -21   11.48    4.72
  -4   5 -21   15.48    5.55
   4  -6 -21    0.15    0.23
   4  -6 -21    4.26    3.02
   4   6 -21   -0.02    0.21
   4   6 -21   -3.74    3.49
   3  -6 -21   17.67    4.29
   3  -6 -21   18.06    1.35
   3   6 -21   16.17    1.21
   3   6 -21   11.82    4.45
   3   6 -21   18.36    5.61
   3   6 -21   16.63    1.12
   2  -6 -21    0.26    3.09
   2  -6 -21    2.47    0.55
   2   6 -21    2.46    0.53
   2   6 -21   -4.21    3.33
   2   6 -21    1.88    0.41
   2   6 -21    1.73    2.63
   1  -6 -21   16.37    3.87
   1  -6 -21   24.02    1.67
   1   6 -21   15.40    5.00
   1   6 -21   29.02    6.53
   1   6 -21   25.78    1.61
   1   6 -21   24.73    1.42
   0  -6 -21    7.09    1.06
   0  -6 -21    2.53    2.30
   0   6 -21   10.62    4.49
   0   6 -21    7.77    0.86
   0   6 -21    9.32    0.79
   0   6 -21   14.35    4.15
  -1  -6 -21    3.53    2.28
  -1   6 -21    7.28    3.67
  -1   6 -21    4.40    0.75
  -1   6 -21    5.40    0.60
  -1   6 -21    8.63    3.80
  -2   6 -21    0.17    0.16
  -2   6 -21    0.55    2.51
  -2   6 -21   -3.93    2.26
  -2   6 -21    0.63    0.30
  -3   6 -21   -5.37    3.13
   3  -7 -21   26.64    4.97
   3  -7 -21   25.19    1.65
   3   7 -21    8.14    6.00
   3   7 -21   21.46    6.04
   3   7 -21   23.73    1.45
   3   7 -21   22.89    2.01
   2  -7 -21    4.11    2.43
   2  -7 -21    4.40    0.75
   2   7 -21    3.77    3.17
   2   7 -21    3.30    0.63
   2   7 -21    4.66    0.94
   2   7 -21    4.08    4.37
   1  -7 -21    1.73    0.50
   1  -7 -21    0.59    1.68
   1   7 -21    1.54    0.34
   1   7 -21    1.33    0.41
   1   7 -21   -0.15    3.08
   1   7 -21   -2.07    2.63
   0   7 -21    0.11    0.27
   0   7 -21    5.19    3.29
   0   7 -21    0.78    2.81
   0   7 -21    0.38    0.25
  -1  -7 -21   16.05    3.62
  -1   7 -21   22.75    5.60
  -1   7 -21   20.39    1.53
  -1   7 -21   20.28    1.50
  -2   7 -21    0.94    0.33
  -2   7 -21    1.32    3.13
  -2   7 -21    0.87    0.40
  -2   7 -21    0.57    2.80
  -3   7 -21   19.89    6.57
  -3   7 -21   11.82    5.09
   1  -8 -21   23.11    4.33
   1   8 -21   26.51    1.69
   1   8 -21   28.07    1.62
   1   8 -21   24.32    5.74
   0  -8 -21   10.83    3.27
   0   8 -21    6.91    0.74
   0   8 -21   10.22    5.38
   0   8 -21    4.39    3.50
   0   8 -21    7.52    0.89
  -1  -8 -21    5.44    2.71
  -1   8 -21    7.18    0.74
  -1   8 -21    0.37    3.11
  -1   8 -21    7.34    0.86
  -1   8 -21   10.48    5.18
   4   0 -22   37.59    2.35
   3   0 -22   -2.22    1.93
   3   0 -22    0.28    0.25
   2   0 -22   35.71    6.12
   2   0 -22   30.90    1.88
   1   0 -22    1.54    1.97
   0   0 -22    0.22    0.20
   0   0 -22   -1.34    1.97
   0   0 -22    3.30    3.00
  -1   0 -22    2.07    2.26
  -1   0 -22    2.64    2.49
  -2   0 -22   26.75    6.70
  -2   0 -22   32.03    5.33
  -2   0 -22   30.69    2.08
  -3   0 -22   -3.39    2.62
  -4   0 -22   29.91   11.04
   4   0  22   40.25    9.05
   4  -1 -22   17.77    6.14
   4  -1 -22   10.27    0.98
   4   1 -22   11.11    0.82
   4   1 -22   10.81    5.68
   3  -1 -22   14.88    1.16
   3  -1 -22   13.12    5.02
   3   1 -22   11.83    1.05
   3   1 -22   12.74    0.92
   3   1 -22   11.73    4.31
   2  -1 -22   12.46    1.10
   2   1 -22   11.08    1.00
   2   1 -22   10.44    3.63
   1  -1 -22    7.73    0.86
   1  -1 -22    1.91    2.38
   1   1 -22    5.32    2.78
   1   1 -22    3.88    2.54
   1   1 -22    7.84    0.84
   0  -1 -22   15.80    4.71
   0  -1 -22   23.03    1.60
   0   1 -22   18.32    4.91
   0   1 -22   21.05    1.54
   0   1 -22   18.16    4.99
  -1  -1 -22   10.76    5.78
  -1  -1 -22    3.91    2.45
  -1  -1 -22    7.42    0.87
  -1   1 -22    7.58    3.33
  -1   1 -22    6.09    3.15
  -1   1 -22    6.48    1.02
  -2  -1 -22    8.21    3.25
  -2   1 -22    8.85    1.04
  -2   1 -22    6.87    3.16
  -2   1 -22    9.53    4.11
  -3   1 -22    5.50    3.60
  -3   1 -22   16.17    4.87
  -4   1 -22   15.71    5.20
   4  -2 -22    3.44    3.65
   4  -2 -22    1.10    0.41
   4   2 -22    0.93    0.26
   4   2 -22    1.46    0.40
   4   2 -22    0.81    3.62
   3  -2 -22   -0.34    0.18
   3  -2 -22   -1.74    2.29
   3   2 -22    0.21    0.13
   3   2 -22    1.98    2.78
   3   2 -22    0.39    0.28
   2  -2 -22   -0.37    0.15
   2  -2 -22   -0.16    1.87
   2   2 -22   -0.11    2.65
   2   2 -22   -3.11    1.98
   2   2 -22   -0.27    0.14
   2   2 -22    0.23    0.17
   1  -2 -22   -0.12    1.98
   1  -2 -22    0.35    0.22
   1   2 -22    0.18    0.20
   1   2 -22    1.40    2.15
   0  -2 -22   -0.03    0.21
   0   2 -22    2.19    2.16
   0   2 -22    0.71    2.38
  -1  -2 -22   -0.02    0.23
  -1  -2 -22   -2.44    1.52
  -1   2 -22    0.29    2.29
  -1   2 -22   -0.61    2.00
  -1   2 -22    0.15    0.25
  -2  -2 -22   -2.45    1.87
  -2   2 -22    3.03    2.67
  -2   2 -22    0.60    0.36
  -2   2 -22    0.27    3.04
  -3   2 -22    1.15    3.19
  -4   2 -22    3.36    4.38
   4  -3 -22   -0.18    3.15
   4  -3 -22    0.82    0.32
   4   3 -22    2.35    4.45
   4   3 -22    0.28    0.22
   4   3 -22    0.63    0.22
   3  -3 -22   29.39    1.80
   3  -3 -22   20.75    5.17
   3   3 -22   27.72    1.72
   3   3 -22   20.88    5.82
   3   3 -22   27.58    1.45
   2  -3 -22    3.97    3.13
   2  -3 -22    6.78    0.82
   2   3 -22    7.60    0.85
   2   3 -22    7.01    3.69
   2   3 -22    8.82    0.69
   2   3 -22    3.51    3.10
   1  -3 -22    4.42    2.96
   1  -3 -22    5.41    0.85
   1   3 -22    5.50    3.12
   1   3 -22    4.23    0.75
   1   3 -22    1.78    2.96
   1   3 -22    4.37    0.52
   0  -3 -22   16.76    4.47
   0  -3 -22   15.69    1.37
   0   3 -22   13.04    4.36
   0   3 -22   19.49    5.08
   0   3 -22   20.45    1.48
  -1  -3 -22    5.74    0.94
  -1   3 -22    5.32    3.31
  -1   3 -22    6.64    0.99
  -2  -3 -22    8.47    3.08
  -2   3 -22   14.99    4.99
  -2   3 -22    7.55    1.09
  -2   3 -22    3.91    4.01
  -3   3 -22   23.37    5.66
  -3   3 -22   17.49    7.05
  -4   3 -22    2.83    2.68
  -4   3 -22   -4.44    5.23
   4  -4 -22    1.80    3.96
   4  -4 -22   -0.09    0.20
   4   4 -22    0.52    0.28
   4   4 -22    0.20    0.21
   3  -4 -22   18.55    1.39
   3  -4 -22   12.10    4.17
   3   4 -22   18.10    1.13
   3   4 -22   16.70    1.59
   3   4 -22   18.67    6.03
   2  -4 -22    0.44    2.42
   2  -4 -22    1.16    0.38
   2   4 -22    1.00    2.45
   2   4 -22    1.34    0.33
   2   4 -22    0.99    0.37
   2   4 -22    3.42    3.31
   1  -4 -22   53.76    7.06
   1  -4 -22   70.07    3.32
   1   4 -22   53.69    8.42
   1   4 -22   71.75    3.23
   1   4 -22   62.61    7.93
   1   4 -22   69.38    2.84
   0  -4 -22    0.19    0.27
   0   4 -22   -0.09    0.11
   0   4 -22   -1.21    3.09
   0   4 -22    0.17    0.23
   0   4 -22   -1.67    3.02
  -1  -4 -22   59.62    7.13
  -1   4 -22   61.39    9.08
  -1   4 -22   61.96    8.53
  -1   4 -22   63.18    3.15
  -2  -4 -22    3.28    2.21
  -2   4 -22    1.27    2.60
  -2   4 -22    5.41    3.06
  -2   4 -22    2.28    0.56
  -3   4 -22   10.55    4.29
  -3   4 -22   14.19    5.18
  -4   4 -22   -1.96    2.65
  -4   4 -22    0.64    3.59
   3  -5 -22    0.33    0.34
   3  -5 -22    2.99    3.10
   3   5 -22   -3.91    2.89
   3   5 -22    0.19    0.20
   3   5 -22    0.40    0.26
   2  -5 -22   -0.19    2.60
   2   5 -22   -0.16    4.92
   2   5 -22    0.08    2.30
   1  -5 -22    0.48    0.28
   1  -5 -22   -0.09    2.27
   1   5 -22    0.19    0.14
   1   5 -22    0.09    0.18
   1   5 -22   -0.50    2.64
   1   5 -22    1.92    3.16
   0  -5 -22   17.75    3.97
   0  -5 -22   24.52    1.75
   0   5 -22   17.21    5.90
   0   5 -22   24.89    1.68
   0   5 -22   24.23    1.40
   0   5 -22   13.82    4.33
  -1  -5 -22    1.49    1.74
  -1   5 -22    1.06    2.64
  -1   5 -22    0.47    0.30
  -1   5 -22    0.90    3.00
  -1   5 -22    0.26    0.19
  -2  -5 -22   -1.62    2.21
  -2   5 -22    6.65    3.70
  -2   5 -22    7.33    4.08
  -2   5 -22    2.18    0.53
  -3   5 -22   -0.14    3.78
  -3   5 -22    3.42    2.92
   2  -6 -22    0.56    0.32
   2   6 -22   -1.38    2.63
   2   6 -22   -4.35    3.83
   2   6 -22    0.37    0.17
   2   6 -22    0.41    0.23
   1  -6 -22   13.25    3.36
   1  -6 -22    9.47    1.04
   1   6 -22    0.71    3.71
   1   6 -22    6.17    6.83
   1   6 -22   10.64    0.88
   1   6 -22   10.48    1.01
   0  -6 -22   -0.22    2.00
   0   6 -22   -1.15    2.65
   0   6 -22   -0.11    0.21
   0   6 -22   -5.67    2.93
   0   6 -22    0.19    0.17
  -1  -6 -22   11.23    3.76
  -1   6 -22    9.78    1.07
  -1   6 -22   11.24    4.48
  -1   6 -22   18.63    5.46
  -2   6 -22    1.50    0.45
  -2   6 -22   -2.60    2.84
  -2   6 -22   -5.37    3.30
   1  -7 -22   -1.59    2.27
   1   7 -22    4.10    3.56
   1   7 -22    5.98    4.17
   0  -7 -22   61.09    7.28
   0   7 -22   79.94   12.19
   0   7 -22   66.52    2.94
   0   7 -22   67.26    3.23
   0   7 -22   55.56    8.70
  -1   7 -22    1.26    3.20
  -1   7 -22    1.05    0.45
   4   0 -23    0.24    0.18
   3   0 -23    3.57    3.06
   3   0 -23    4.72    1.17
   2   0 -23   -0.02    0.20
   2   0 -23   -0.19    2.43
   1   0 -23    0.56    2.48
   1   0 -23    0.77    0.29
   0   0 -23    0.53    0.35
  -1   0 -23    5.32    3.46
  -1   0 -23    4.12    0.79
  -2   0 -23   -0.28    0.21
  -2   0 -23   -1.07    2.52
  -3   0 -23   10.86    4.35
   3  -1 -23    4.28    3.68
   3   1 -23    0.34    2.93
   3   1 -23    4.12    0.77
   2  -1 -23    5.76    0.89
   2   1 -23   -3.49    2.39
   2   1 -23    5.63    0.89
   1  -1 -23    5.67    3.03
   1  -1 -23    6.94    0.84
   1   1 -23    6.54    0.80
   1   1 -23    6.06    3.42
   0  -1 -23    2.37    2.60
   0  -1 -23    3.32    0.69
   0   1 -23    4.16    2.80
   0   1 -23    3.73    0.78
  -1  -1 -23    3.43    0.73
  -1  -1 -23    5.21    3.44
  -1   1 -23    4.67    0.87
  -1   1 -23    8.72    3.51
  -2  -1 -23    3.71    2.55
  -2   1 -23    5.29    3.27
  -2   1 -23    4.72    0.88
  -3  -1 -23    0.37    2.84
  -3   1 -23    4.66    2.86
   3   2 -23    7.95    0.86
   3   2 -23    0.06    3.76
   3   2 -23    4.99    0.53
   2  -2 -23    5.13    3.67
   2  -2 -23    2.60    0.61
   2   2 -23    4.53    0.49
   2   2 -23    3.96    0.71
   2   2 -23    3.05    3.64
   1  -2 -23    4.64    0.77
   1  -2 -23    3.95    2.96
   1   2 -23    0.54    3.03
   1   2 -23    4.63    0.82
   0  -2 -23    0.67    0.33
   0   2 -23   -0.17    1.97
   0   2 -23   -1.85    2.27
   0   2 -23    1.27    0.41
  -1  -2 -23    4.22    0.87
  -1  -2 -23    2.62    2.37
  -1   2 -23    3.46    3.04
  -1   2 -23    5.63    3.06
  -1   2 -23    3.23    0.67
  -2  -2 -23   -0.63    2.13
  -2   2 -23    2.38    2.80
  -2   2 -23    4.18    3.68
  -3   2 -23    1.37    3.22
  -3   2 -23   -0.16    3.66
   3   3 -23    3.28    5.45
   2  -3 -23    0.33    0.26
   2  -3 -23   -0.03    2.49
   2   3 -23   -2.68    2.59
   2   3 -23    0.28    0.18
   2   3 -23    0.64    0.45
   1  -3 -23    0.13    2.28
   1  -3 -23    0.76    0.37
   1   3 -23    1.72    4.17
   1   3 -23    0.42    0.30
   1   3 -23    0.62    0.22
   1   3 -23   -0.46    2.42
   0  -3 -23    1.57    0.51
   0  -3 -23    1.01    2.50
   0   3 -23   -2.91    2.43
   0   3 -23    0.80    3.13
   0   3 -23    1.66    0.46
  -1  -3 -23    3.17    3.64
  -1  -3 -23    0.66    0.36
  -1   3 -23   -2.34    2.52
  -1   3 -23    0.57    2.16
  -1   3 -23    0.74    0.33
  -2  -3 -23    7.91    3.82
  -2   3 -23    6.54    3.70
  -2   3 -23    4.38    0.86
  -2   3 -23    3.97    3.97
  -3   3 -23   -5.90    2.73
  -3   3 -23   -4.90    3.26
   3  -4 -23    1.60    0.64
   3   4 -23    1.32    0.32
   3   4 -23    2.13    0.52
   2  -4 -23   14.59    1.26
   2  -4 -23    5.62    3.92
   2   4 -23   16.31    1.35
   2   4 -23   14.26    1.00
   2   4 -23    8.47    4.46
   1  -4 -23    0.51    0.32
   1  -4 -23    0.45    2.52
   1   4 -23    1.44    2.18
   1   4 -23    0.86    0.24
   1   4 -23    0.33    0.27
   1   4 -23    1.12    3.30
   0  -4 -23    9.72    4.38
   0  -4 -23    7.89    0.96
   0   4 -23    7.58    0.92
   0   4 -23   10.40    4.19
   0   4 -23    2.83    3.92
   0   4 -23    8.36    0.75
  -1  -4 -23    4.53    2.43
  -1   4 -23   -1.76    2.94
  -1   4 -23    9.79    4.41
  -2   4 -23    5.35    3.84
  -2   4 -23   -1.07    3.46
  -2   4 -23    4.24    0.90
   2  -5 -23    0.45    4.05
   2  -5 -23    1.29    0.53
   2   5 -23    4.69    4.61
   2   5 -23    1.35    0.44
   2   5 -23    0.82    0.28
   1  -5 -23   -2.13    2.19
   1   5 -23    2.53    3.78
   1   5 -23    2.61    2.69
   1   5 -23    0.71    0.21
   0  -5 -23    5.60    0.98
   0  -5 -23    2.46    2.73
   0   5 -23   -5.01    2.97
   0   5 -23    2.97    0.64
   0   5 -23    1.74    3.84
   0   5 -23    3.70    0.56
  -1   5 -23    3.69    3.52
  -1   5 -23   -0.57    3.38
  -1   5 -23    0.42    0.27
  -2   5 -23    2.14    3.93
  -2   5 -23    1.95    4.61
   2   0 -24  102.59    4.49
   1   0 -24    0.44    0.24
   1   0 -24   -2.56    2.77
   0   0 -24  127.12    5.90
   0   0 -24  132.97   12.32
  -1   0 -24    1.43    2.62
  -2   0 -24  102.59   15.34
   2  -1 -24   22.64    1.66
   2   1 -24   23.71    1.69
   1  -1 -24    2.20    3.87
   1  -1 -24    0.43    0.32
   1   1 -24   -0.38    0.22
   1   1 -24   -1.74    3.39
   0  -1 -24   -2.39    3.06
   0   1 -24   -0.51    2.90
   0   1 -24    0.21    0.26
  -1  -1 -24    2.86    3.29
  -1  -1 -24   -0.10    0.27
  -1   1 -24    0.59    0.40
  -1   1 -24   -1.69    3.00
  -2   1 -24   14.36    5.56
  -2   1 -24   23.93    1.85
   2  -2 -24   18.62    1.52
   2   2 -24   22.31    1.62
   1  -2 -24   17.20    1.44
   1   2 -24    6.75    3.87
   1   2 -24   15.51    1.32
   0  -2 -24    0.36    0.32
   0   2 -24    0.32    0.28
   0   2 -24   -2.36    3.09
  -1  -2 -24    9.08    1.11
  -1   2 -24    8.04    3.99
  -1   2 -24    9.87    1.12
  -2   2 -24   14.08    5.16
  -2   2 -24   18.86    1.63
   1  -3 -24   64.19    3.26
   1   3 -24   42.85    9.55
   1   3 -24   65.84    3.21
   0   3 -24    5.00    3.80
  -1  -3 -24   68.69    3.61
  -1   3 -24   68.65    3.51
   0  -4 -24    5.39    0.99
   0   4 -24    3.25    0.64
   0   4 -24    4.62    4.09
   0   0   0    0.00    0.00
;
_shelx_hkl_checksum              28682
loop_
_space_group_symop_operation_xyz
'x, y, z'
'-x+1/2, y+1/2, -z+1/2'
'-x, -y, -z'
'x-1/2, -y-1/2, z-1/2'
loop_
_atom_site_label
_atom_site_type_symbol
_atom_site_fract_x
_atom_site_fract_y
_atom_site_fract_z
_atom_site_U_iso_or_equiv
_atom_site_adp_type
_atom_site_occupancy
_atom_site_site_symmetry_order
_atom_site_calc_flag
_atom_site_refinement_flags_posn
_atom_site_refinement_flags_adp
_atom_site_refinement_flags_occupancy
_atom_site_disorder_assembly
_atom_site_disorder_group
Ba1 Ba -0.05306(5) 0.17300(3) 0.50814(2) 0.01599(11) Uani 1 1 d . . . . .
Ba2 Ba -0.05169(5) 0.17482(3) 0.24224(2) 0.01613(11) Uani 1 1 d . . . . .
Ba3 Ba 0.41977(5) 0.32926(4) 0.49813(2) 0.01797(11) Uani 1 1 d . . . . .
Ba4 Ba 0.42142(6) 0.33020(4) 0.25311(2) 0.01806(11) Uani 1 1 d . . . . .
Ba5 Ba 0.45620(5) 0.03835(3) 0.37291(2) 0.01368(11) Uani 1 1 d . . . . .
Ba6 Ba -0.04858(5) 0.45692(3) 0.37668(2) 0.01377(11) Uani 1 1 d . . . . .
Cl1 Cl -0.0600(2) -0.01358(14) 0.62855(10) 0.0210(4) Uani 1 1 d . . . . .
Cl2 Cl -0.2055(2) 0.42506(15) 0.52102(10) 0.0226(4) Uani 1 1 d . . . . .
Cl3 Cl -0.1502(2) 0.70885(14) 0.36890(11) 0.0217(4) Uani 1 1 d . . . . .
Cl4 Cl -0.2127(2) 0.43920(17) 0.23094(10) 0.0242(4) Uani 1 1 d . . . . .
Cl5 Cl -0.0440(2) -0.00572(14) 0.12282(10) 0.0195(4) Uani 1 1 d . . . . .
Cl6 Cl 0.3074(2) 0.07542(15) 0.22670(10) 0.0222(4) Uani 1 1 d . . . . .
Cl7 Cl 0.7311(2) 0.22350(15) 0.37374(11) 0.0227(4) Uani 1 1 d . . . . .
Cl8 Cl 0.7048(2) -0.05664(17) 0.47985(10) 0.0251(4) Uani 1 1 d . . . . .
Cl9 Cl 0.3570(2) -0.20457(14) 0.38200(10) 0.0219(4) Uani 1 1 d . . . . .
B1 B 0.2039(10) 0.2759(6) 0.3754(5) 0.0152(17) Uani 1 1 d . . . . .
O1 O 0.1276(6) 0.2987(4) 0.4383(3) 0.0153(11) Uani 1 1 d . . . . .
O2 O 0.1282(6) 0.3022(4) 0.3131(3) 0.0150(11) Uani 1 1 d . . . . .
O3 O 0.3593(6) 0.2371(4) 0.3756(3) 0.0138(10) Uani 1 1 d . . . . .
loop_
_atom_site_aniso_label
_atom_site_aniso_U_11
_atom_site_aniso_U_22
_atom_site_aniso_U_33
_atom_site_aniso_U_23
_atom_site_aniso_U_13
_atom_site_aniso_U_12
Ba1 0.0157(2) 0.0160(2) 0.0163(2) 0.00272(17) 0.00229(18) -0.00021(16)
Ba2 0.0165(2) 0.0168(2) 0.0150(2) -0.00256(17) -0.00130(18) -0.00063(16)
Ba3 0.0191(2) 0.0195(2) 0.0154(2) -0.00185(18) -0.00245(18) -0.00223(18)
Ba4 0.0197(2) 0.0178(2) 0.0167(2) 0.00126(17) 0.00394(18) -0.00242(17)
Ba5 0.0152(2) 0.01193(19) 0.0139(2) 0.00046(16) 0.00059(17) 0.00085(16)
Ba6 0.0153(2) 0.01288(19) 0.0131(2) 0.00051(16) 0.00090(17) 0.00214(16)
Cl1 0.0207(9) 0.0218(9) 0.0206(10) 0.0025(7) -0.0004(8) -0.0007(7)
Cl2 0.0211(9) 0.0276(9) 0.0191(10) -0.0020(8) 0.0033(8) -0.0040(7)
Cl3 0.0240(9) 0.0174(8) 0.0237(10) -0.0001(7) -0.0043(8) 0.0001(7)
Cl4 0.0189(9) 0.0372(11) 0.0166(10) 0.0021(8) 0.0000(8) -0.0058(8)
Cl5 0.0222(9) 0.0181(8) 0.0181(10) -0.0012(7) 0.0008(8) -0.0007(7)
Cl6 0.0224(9) 0.0277(9) 0.0165(10) -0.0029(7) -0.0002(8) 0.0078(8)
Cl7 0.0167(9) 0.0204(8) 0.0311(11) -0.0009(8) 0.0004(8) -0.0011(7)
Cl8 0.0225(10) 0.0360(11) 0.0168(10) 0.0030(8) 0.0012(8) 0.0094(8)
Cl9 0.0251(10) 0.0161(8) 0.0247(11) 0.0004(7) 0.0051(9) -0.0009(7)
B1 0.014(4) 0.011(3) 0.022(5) -0.004(3) 0.005(4) -0.003(3)
O1 0.016(2) 0.016(2) 0.014(3) 0.002(2) 0.001(2) 0.0002(19)
O2 0.014(2) 0.016(2) 0.015(3) 0.000(2) -0.001(2) -0.0027(19)
O3 0.010(2) 0.015(2) 0.017(3) 0.002(2) 0.000(2) 0.0034(18)
loop_
_atom_type_symbol
_atom_type_description
_atom_type_scat_dispersion_real
_atom_type_scat_dispersion_imag
_atom_type_scat_source
B B 0.0013 0.0007 'International Tables Vol C Tables 4.2.6.8 and 6.1.1.4'
Ba Ba -0.3244 2.2819 'International Tables Vol C Tables 4.2.6.8 and 6.1.1.4'
Cl Cl 0.1484 0.1585 'International Tables Vol C Tables 4.2.6.8 and 6.1.1.4'
O O 0.0106 0.0060 'International Tables Vol C Tables 4.2.6.8 and 6.1.1.4'
loop_
_geom_angle_atom_site_label_1
_geom_angle_atom_site_label_2
_geom_angle_atom_site_label_3
_geom_angle
_geom_angle_site_symmetry_1
_geom_angle_site_symmetry_3
_geom_angle_publ_flag
O1 Ba1 Cl7 77.49(12) . 1_455 ?
O1 Ba1 Cl8 77.39(12) . 3_656 ?
Cl7 Ba1 Cl8 129.89(5) 1_455 3_656 ?
O1 Ba1 Cl3 78.74(12) . 3_566 ?
Cl7 Ba1 Cl3 142.02(5) 1_455 3_566 ?
Cl8 Ba1 Cl3 71.73(5) 3_656 3_566 ?
O1 Ba1 Cl1 144.72(12) . . ?
Cl7 Ba1 Cl1 134.32(5) 1_455 . ?
Cl8 Ba1 Cl1 69.74(5) 3_656 . ?
Cl3 Ba1 Cl1 79.13(5) 3_566 . ?
O1 Ba1 Cl9 135.59(11) . 3_556 ?
Cl7 Ba1 Cl9 93.85(5) 1_455 3_556 ?
Cl8 Ba1 Cl9 133.41(5) 3_656 3_556 ?
Cl3 Ba1 Cl9 82.94(5) 3_566 3_556 ?
Cl1 Ba1 Cl9 67.45(5) . 3_556 ?
O1 Ba1 Cl2 72.33(11) . . ?
Cl7 Ba1 Cl2 70.75(5) 1_455 . ?
Cl8 Ba1 Cl2 137.78(5) 3_656 . ?
Cl3 Ba1 Cl2 74.02(5) 3_566 . ?
Cl1 Ba1 Cl2 126.31(5) . . ?
Cl9 Ba1 Cl2 63.81(4) 3_556 . ?
O1 Ba1 Cl1 77.43(11) . 3_556 ?
Cl7 Ba1 Cl1 69.23(5) 1_455 3_556 ?
Cl8 Ba1 Cl1 63.35(5) 3_656 3_556 ?
Cl3 Ba1 Cl1 132.55(5) 3_566 3_556 ?
Cl1 Ba1 Cl1 98.28(5) . 3_556 ?
Cl9 Ba1 Cl1 140.21(5) 3_556 3_556 ?
Cl2 Ba1 Cl1 133.86(5) . 3_556 ?
O1 Ba1 Cl8 138.39(12) . 1_455 ?
Cl7 Ba1 Cl8 73.44(5) 1_455 1_455 ?
Cl8 Ba1 Cl8 99.30(5) 3_656 1_455 ?
Cl3 Ba1 Cl8 140.37(5) 3_566 1_455 ?
Cl1 Ba1 Cl8 61.91(5) . 1_455 ?
Cl9 Ba1 Cl8 76.03(5) 3_556 1_455 ?
Cl2 Ba1 Cl8 122.87(5) . 1_455 ?
Cl1 Ba1 Cl8 64.80(4) 3_556 1_455 ?
O1 Ba1 Ba6 35.90(11) . . ?
Cl7 Ba1 Ba6 51.36(3) 1_455 . ?
Cl8 Ba1 Ba6 113.14(4) 3_656 . ?
Cl3 Ba1 Ba6 93.18(4) 3_566 . ?
Cl1 Ba1 Ba6 170.63(4) . . ?
Cl9 Ba1 Ba6 106.56(3) 3_556 . ?
Cl2 Ba1 Ba6 45.36(3) . . ?
Cl1 Ba1 Ba6 90.86(3) 3_556 . ?
Cl8 Ba1 Ba6 124.76(4) 1_455 . ?
O1 Ba1 Ba3 34.72(12) . . ?
Cl7 Ba1 Ba3 112.16(4) 1_455 . ?
Cl8 Ba1 Ba3 53.06(4) 3_656 . ?
Cl3 Ba1 Ba3 50.98(4) 3_566 . ?
Cl1 Ba1 Ba3 111.12(4) . . ?
Cl9 Ba1 Ba3 131.24(4) 3_556 . ?
Cl2 Ba1 Ba3 86.10(4) . . ?
Cl1 Ba1 Ba3 88.41(4) 3_556 . ?
Cl8 Ba1 Ba3 149.36(3) 1_455 . ?
Ba6 Ba1 Ba3 66.846(14) . . ?
O1 Ba1 Ba1 116.08(10) . 3_556 ?
Cl7 Ba1 Ba1 104.17(4) 1_455 3_556 ?
Cl8 Ba1 Ba1 52.48(4) 3_656 3_556 ?
Cl3 Ba1 Ba1 112.79(4) 3_566 3_556 ?
Cl1 Ba1 Ba1 50.63(3) . 3_556 ?
Cl9 Ba1 Ba1 108.29(3) 3_556 3_556 ?
Cl2 Ba1 Ba1 169.57(4) . 3_556 ?
Cl1 Ba1 Ba1 47.65(3) 3_556 3_556 ?
Cl8 Ba1 Ba1 46.82(3) 1_455 3_556 ?
Ba6 Ba1 Ba1 138.466(18) . 3_556 ?
Ba3 Ba1 Ba1 104.322(18) . 3_556 ?
O2 Ba2 Cl7 77.89(11) . 1_455 ?
O2 Ba2 Cl5 142.88(11) . . ?
Cl7 Ba2 Cl5 135.86(5) 1_455 . ?
O2 Ba2 Cl6 75.38(11) . . ?
Cl7 Ba2 Cl6 132.21(6) 1_455 . ?
Cl5 Ba2 Cl6 69.44(5) . . ?
O2 Ba2 Cl9 79.58(11) . 2 ?
Cl7 Ba2 Cl9 141.74(5) 1_455 2 ?
Cl5 Ba2 Cl9 77.35(5) . 2 ?
Cl6 Ba2 Cl9 69.30(5) . 2 ?
O2 Ba2 Cl3 134.66(12) . 2_445 ?
Cl7 Ba2 Cl3 93.79(5) 1_455 2_445 ?
Cl5 Ba2 Cl3 68.90(5) . 2_445 ?
Cl6 Ba2 Cl3 132.72(5) . 2_445 ?
Cl9 Ba2 Cl3 80.67(5) 2 2_445 ?
O2 Ba2 Cl1 79.03(12) . 3_556 ?
Cl7 Ba2 Cl1 70.96(5) 1_455 3_556 ?
Cl5 Ba2 Cl1 96.47(5) . 3_556 ?
Cl6 Ba2 Cl1 65.57(5) . 3_556 ?
Cl9 Ba2 Cl1 133.52(5) 2 3_556 ?
Cl3 Ba2 Cl1 140.47(5) 2_445 3_556 ?
O2 Ba2 Cl4 71.55(12) . . ?
Cl7 Ba2 Cl4 70.00(5) 1_455 . ?
Cl5 Ba2 Cl4 127.45(5) . . ?
Cl6 Ba2 Cl4 133.82(5) . . ?
Cl9 Ba2 Cl4 73.71(4) 2 . ?
Cl3 Ba2 Cl4 63.84(5) 2_445 . ?
Cl1 Ba2 Cl4 134.91(5) 3_556 . ?
O2 Ba2 Cl4 138.46(11) . 2_445 ?
Cl7 Ba2 Cl4 74.00(5) 1_455 2_445 ?
Cl5 Ba2 Cl4 62.92(4) . 2_445 ?
Cl6 Ba2 Cl4 102.12(5) . 2_445 ?
Cl9 Ba2 Cl4 139.38(5) 2 2_445 ?
Cl3 Ba2 Cl4 77.64(5) 2_445 2_445 ?
Cl1 Ba2 Cl4 63.26(5) 3_556 2_445 ?
Cl4 Ba2 Cl4 124.02(2) . 2_445 ?
O2 Ba2 Ba6 35.54(10) . . ?
Cl7 Ba2 Ba6 51.25(3) 1_455 . ?
Cl5 Ba2 Ba6 170.61(3) . . ?
Cl6 Ba2 Ba6 110.87(4) . . ?
Cl9 Ba2 Ba6 93.88(4) 2 . ?
Cl3 Ba2 Ba6 106.69(3) 2_445 . ?
Cl1 Ba2 Ba6 92.01(4) 3_556 . ?
Cl4 Ba2 Ba6 45.25(4) . . ?
Cl4 Ba2 Ba6 125.10(3) 2_445 . ?
O2 Ba2 Ba4 35.21(10) . . ?
Cl7 Ba2 Ba4 113.03(4) 1_455 . ?
Cl5 Ba2 Ba4 108.66(4) . . ?
Cl6 Ba2 Ba4 49.09(4) . . ?
Cl9 Ba2 Ba4 52.11(4) 2 . ?
Cl3 Ba2 Ba4 130.34(4) 2_445 . ?
Cl1 Ba2 Ba4 88.84(4) 3_556 . ?
Cl4 Ba2 Ba4 86.32(4) . . ?
Cl4 Ba2 Ba4 148.07(4) 2_445 . ?
Ba6 Ba2 Ba4 67.383(14) . . ?
O2 Ba2 Ba4 116.27(11) . 2_545 ?
Cl7 Ba2 Ba4 107.95(4) 1_455 2_545 ?
Cl5 Ba2 Ba4 48.24(4) . 2_545 ?
Cl6 Ba2 Ba4 53.69(4) . 2_545 ?
Cl9 Ba2 Ba4 109.67(3) 2 2_545 ?
Cl3 Ba2 Ba4 108.74(3) 2_445 2_545 ?
Cl1 Ba2 Ba4 48.25(3) 3_556 2_545 ?
Cl4 Ba2 Ba4 171.68(4) . 2_545 ?
Cl4 Ba2 Ba4 48.46(3) 2_445 2_545 ?
Ba6 Ba2 Ba4 139.935(17) . 2_545 ?
Ba4 Ba2 Ba4 101.769(16) . 2_545 ?
O3 Ba3 O1 53.02(14) . . ?
O3 Ba3 B1 27.00(17) . . ?
O1 Ba3 B1 27.41(17) . . ?
O3 Ba3 Cl5 162.77(11) . 4_666 ?
O1 Ba3 Cl5 119.16(10) . 4_666 ?
B1 Ba3 Cl5 140.58(15) . 4_666 ?
O3 Ba3 Cl5 72.25(10) . 2 ?
O1 Ba3 Cl5 93.92(10) . 2 ?
B1 Ba3 Cl5 76.58(15) . 2 ?
Cl5 Ba3 Cl5 94.48(5) 4_666 2 ?
O3 Ba3 Cl9 121.15(11) . 3_656 ?
O1 Ba3 Cl9 136.48(10) . 3_656 ?
B1 Ba3 Cl9 139.84(15) . 3_656 ?
Cl5 Ba3 Cl9 75.53(5) 4_666 3_656 ?
Cl5 Ba3 Cl9 127.35(5) 2 3_656 ?
O3 Ba3 Cl2 116.01(10) . 1_655 ?
O1 Ba3 Cl2 158.97(10) . 1_655 ?
B1 Ba3 Cl2 136.38(15) . 1_655 ?
Cl5 Ba3 Cl2 65.39(5) 4_666 1_655 ?
Cl5 Ba3 Cl2 65.05(5) 2 1_655 ?
Cl9 Ba3 Cl2 63.87(5) 3_656 1_655 ?
O3 Ba3 Cl3 118.63(10) . 3_566 ?
O1 Ba3 Cl3 73.33(11) . 3_566 ?
B1 Ba3 Cl3 99.52(15) . 3_566 ?
Cl5 Ba3 Cl3 66.55(5) 4_666 3_566 ?
Cl5 Ba3 Cl3 145.52(5) 2 3_566 ?
Cl9 Ba3 Cl3 77.47(5) 3_656 3_566 ?
Cl2 Ba3 Cl3 123.79(5) 1_655 3_566 ?
O3 Ba3 Cl2 100.48(11) . 3_566 ?
O1 Ba3 Cl2 68.05(10) . 3_566 ?
B1 Ba3 Cl2 79.05(15) . 3_566 ?
Cl5 Ba3 Cl2 63.04(5) 4_666 3_566 ?
Cl5 Ba3 Cl2 63.20(4) 2 3_566 ?
Cl9 Ba3 Cl2 138.37(5) 3_656 3_566 ?
Cl2 Ba3 Cl2 100.14(5) 1_655 3_566 ?
Cl3 Ba3 Cl2 82.35(4) 3_566 3_566 ?
O3 Ba3 Cl8 69.26(10) . 3_656 ?
O1 Ba3 Cl8 69.99(10) . 3_656 ?
B1 Ba3 Cl8 73.44(15) . 3_656 ?
Cl5 Ba3 Cl8 125.04(5) 4_666 3_656 ?
Cl5 Ba3 Cl8 140.44(5) 2 3_656 ?
Cl9 Ba3 Cl8 68.88(5) 3_656 3_656 ?
Cl2 Ba3 Cl8 126.12(5) 1_655 3_656 ?
Cl3 Ba3 Cl8 65.83(4) 3_566 3_656 ?
Cl2 Ba3 Cl8 132.90(5) 3_566 3_656 ?
O3 Ba3 Ba5 33.67(10) . . ?
O1 Ba3 Ba5 73.28(10) . . ?
B1 Ba3 Ba5 55.22(15) . . ?
Cl5 Ba3 Ba5 163.31(4) 4_666 . ?
Cl5 Ba3 Ba5 95.70(4) 2 . ?
Cl9 Ba3 Ba5 87.78(3) 3_656 . ?
Cl2 Ba3 Ba5 107.39(3) 1_655 . ?
Cl3 Ba3 Ba5 110.27(3) 3_566 . ?
Cl2 Ba3 Ba5 133.59(4) 3_566 . ?
Cl8 Ba3 Ba5 45.63(3) 3_656 . ?
O3 Ba3 Ba1 71.60(10) . . ?
O1 Ba3 Ba1 32.41(10) . . ?
B1 Ba3 Ba1 53.91(14) . . ?
Cl5 Ba3 Ba1 110.10(3) 4_666 . ?
Cl5 Ba3 Ba1 126.32(4) 2 . ?
Cl9 Ba3 Ba1 105.16(4) 3_656 . ?
Cl2 Ba3 Ba1 168.61(4) 1_655 . ?
Cl3 Ba3 Ba1 47.23(4) 3_566 . ?
Cl2 Ba3 Ba1 86.17(4) 3_566 . ?
Cl8 Ba3 Ba1 46.74(3) 3_656 . ?
Ba5 Ba3 Ba1 73.919(14) . . ?
O3 Ba4 O2 52.82(15) . . ?
O3 Ba4 B1 26.8(2) . . ?
O2 Ba4 B1 27.2(2) . . ?
O3 Ba4 Cl5 71.71(11) . 2 ?
O2 Ba4 Cl5 92.59(11) . 2 ?
B1 Ba4 Cl5 75.98(16) . 2 ?
O3 Ba4 Cl1 160.81(10) . 4_665 ?
O2 Ba4 Cl1 116.07(11) . 4_665 ?
B1 Ba4 Cl1 137.83(16) . 4_665 ?
Cl5 Ba4 Cl1 95.06(5) 2 4_665 ?
O3 Ba4 Cl6 70.83(11) . . ?
O2 Ba4 Cl6 71.95(10) . . ?
B1 Ba4 Cl6 74.97(15) . . ?
Cl5 Ba4 Cl6 141.38(5) 2 . ?
Cl1 Ba4 Cl6 123.57(5) 4_665 . ?
O3 Ba4 Cl4 117.57(11) . 1_655 ?
O2 Ba4 Cl4 156.63(11) . 1_655 ?
B1 Ba4 Cl4 136.61(18) . 1_655 ?
Cl5 Ba4 Cl4 64.32(5) 2 1_655 ?
Cl1 Ba4 Cl4 65.60(5) 4_665 1_655 ?
Cl6 Ba4 Cl4 128.21(5) . 1_655 ?
O3 Ba4 Cl3 122.15(10) . 2_545 ?
O2 Ba4 Cl3 138.16(11) . 2_545 ?
B1 Ba4 Cl3 140.87(15) . 2_545 ?
Cl5 Ba4 Cl3 127.25(5) 2 2_545 ?
Cl1 Ba4 Cl3 76.85(5) 4_665 2_545 ?
Cl6 Ba4 Cl3 68.49(4) . 2_545 ?
Cl4 Ba4 Cl3 65.05(5) 1_655 2_545 ?
O3 Ba4 Cl9 118.23(11) . 2 ?
O2 Ba4 Cl9 73.15(12) . 2 ?
B1 Ba4 Cl9 98.94(18) . 2 ?
Cl5 Ba4 Cl9 144.72(5) 2 2 ?
Cl1 Ba4 Cl9 65.01(5) 4_665 2 ?
Cl6 Ba4 Cl9 65.39(5) . 2 ?
Cl4 Ba4 Cl9 123.45(5) 1_655 2 ?
Cl3 Ba4 Cl9 78.47(5) 2_545 2 ?
O3 Ba4 Cl6 99.44(10) . 2 ?
O2 Ba4 Cl6 65.66(10) . 2 ?
B1 Ba4 Cl6 77.74(15) . 2 ?
Cl5 Ba4 Cl6 64.17(5) 2 2 ?
Cl1 Ba4 Cl6 61.72(4) 4_665 2 ?
Cl6 Ba4 Cl6 131.61(2) . 2 ?
Cl4 Ba4 Cl6 98.84(5) 1_655 2 ?
Cl3 Ba4 Cl6 138.38(5) 2_545 2 ?
Cl9 Ba4 Cl6 80.58(5) 2 2 ?
O3 Ba4 Ba5 34.67(10) . . ?
O2 Ba4 Ba5 73.96(10) . . ?
B1 Ba4 Ba5 55.85(15) . . ?
Cl5 Ba4 Ba5 96.24(4) 2 . ?
Cl1 Ba4 Ba5 164.52(3) 4_665 . ?
Cl6 Ba4 Ba5 45.94(4) . . ?
Cl4 Ba4 Ba5 110.32(4) 1_655 . ?
Cl3 Ba4 Ba5 87.88(3) 2_545 . ?
Cl9 Ba4 Ba5 109.81(3) 2 . ?
Cl6 Ba4 Ba5 133.23(3) 2 . ?
O3 Ba4 Ba2 71.19(11) . . ?
O2 Ba4 Ba2 32.88(11) . . ?
B1 Ba4 Ba2 53.57(17) . . ?
Cl5 Ba4 Ba2 125.47(3) 2 . ?
Cl1 Ba4 Ba2 108.11(4) 4_665 . ?
Cl6 Ba4 Ba2 47.35(3) . . ?
Cl4 Ba4 Ba2 169.72(4) 1_655 . ?
Cl3 Ba4 Ba2 106.16(4) 2_545 . ?
Cl9 Ba4 Ba2 47.18(3) 2 . ?
Cl6 Ba4 Ba2 84.33(4) 2 . ?
Ba5 Ba4 Ba2 73.449(15) . . ?
O3 Ba5 Cl6 75.81(12) . . ?
O3 Ba5 Cl9 146.28(11) . . ?
Cl6 Ba5 Cl9 95.10(6) . . ?
O3 Ba5 Cl8 123.12(13) . . ?
Cl6 Ba5 Cl8 155.35(5) . . ?
Cl9 Ba5 Cl8 77.04(6) . . ?
O3 Ba5 Cl8 77.33(11) . 3_656 ?
Cl6 Ba5 Cl8 129.59(5) . 3_656 ?
Cl9 Ba5 Cl8 84.59(5) . 3_656 ?
Cl8 Ba5 Cl8 73.54(6) . 3_656 ?
O3 Ba5 Cl4 126.10(11) . 2_545 ?
Cl6 Ba5 Cl4 75.61(5) . 2_545 ?
Cl9 Ba5 Cl4 80.85(5) . 2_545 ?
Cl8 Ba5 Cl4 80.06(5) . 2_545 ?
Cl8 Ba5 Cl4 152.10(5) 3_656 2_545 ?
O3 Ba5 Cl7 63.03(11) . . ?
Cl6 Ba5 Cl7 100.29(6) . . ?
Cl9 Ba5 Cl7 150.24(5) . . ?
Cl8 Ba5 Cl7 78.42(6) . . ?
Cl8 Ba5 Cl7 104.29(6) 3_656 . ?
Cl4 Ba5 Cl7 78.55(5) 2_545 . ?
O3 Ba5 Cl1 77.21(11) . 3_556 ?
Cl6 Ba5 Cl1 67.23(5) . 3_556 ?
Cl9 Ba5 Cl1 69.41(5) . 3_556 ?
Cl8 Ba5 Cl1 128.57(5) . 3_556 ?
Cl8 Ba5 Cl1 65.67(5) 3_656 3_556 ?
Cl4 Ba5 Cl1 129.00(5) 2_545 3_556 ?
Cl7 Ba5 Cl1 140.23(5) . 3_556 ?
O3 Ba5 Ba4 36.03(11) . . ?
Cl6 Ba5 Ba4 50.42(4) . . ?
Cl9 Ba5 Ba4 145.35(4) . . ?
Cl8 Ba5 Ba4 135.24(4) . . ?
Cl8 Ba5 Ba4 113.30(4) 3_656 . ?
Cl4 Ba5 Ba4 91.75(4) 2_545 . ?
Cl7 Ba5 Ba4 56.85(4) . . ?
Cl1 Ba5 Ba4 90.48(3) 3_556 . ?
O3 Ba5 Ba3 34.84(12) . . ?
Cl6 Ba5 Ba3 110.65(4) . . ?
Cl9 Ba5 Ba3 138.40(4) . . ?
Cl8 Ba5 Ba3 89.60(4) . . ?
Cl8 Ba5 Ba3 53.82(4) 3_656 . ?
Cl4 Ba5 Ba3 135.92(4) 2_545 . ?
Cl7 Ba5 Ba3 57.38(4) . . ?
Cl1 Ba5 Ba3 90.59(3) 3_556 . ?
Ba4 Ba5 Ba3 66.217(16) . . ?
O3 Ba5 Ba4 108.81(12) . 2_545 ?
Cl6 Ba5 Ba4 49.70(4) . 2_545 ?
Cl9 Ba5 Ba4 47.85(4) . 2_545 ?
Cl8 Ba5 Ba4 124.54(4) . 2_545 ?
Cl8 Ba5 Ba4 102.63(4) 3_656 2_545 ?
Cl4 Ba5 Ba4 84.92(4) 2_545 2_545 ?
Cl7 Ba5 Ba4 148.90(4) . 2_545 ?
Cl1 Ba5 Ba4 44.41(3) 3_556 2_545 ?
Ba4 Ba5 Ba4 98.003(14) . 2_545 ?
Ba3 Ba5 Ba4 133.605(16) . 2_545 ?
O3 Ba5 Ba1 106.79(10) . 3_556 ?
Cl6 Ba5 Ba1 103.63(4) . 3_556 ?
Cl9 Ba5 Ba1 43.03(3) . 3_556 ?
Cl8 Ba5 Ba1 86.66(4) . 3_556 ?
Cl8 Ba5 Ba1 46.72(4) 3_656 3_556 ?
Cl4 Ba5 Ba1 123.87(4) 2_545 3_556 ?
Cl7 Ba5 Ba1 150.60(4) . 3_556 ?
Cl1 Ba5 Ba1 42.46(3) 3_556 3_556 ?
Ba4 Ba5 Ba1 131.630(16) . 3_556 ?
Ba3 Ba5 Ba1 97.785(15) . 3_556 ?
Ba4 Ba5 Ba1 59.237(16) 2_545 3_556 ?
O2 Ba6 O1 52.81(15) . . ?
O2 Ba6 B1 27.0(2) . . ?
O1 Ba6 B1 27.08(19) . . ?
O2 Ba6 Cl2 123.09(11) . . ?
O1 Ba6 Cl2 75.17(10) . . ?
B1 Ba6 Cl2 101.75(16) . . ?
O2 Ba6 Cl4 77.27(12) . . ?
O1 Ba6 Cl4 125.10(11) . . ?
B1 Ba6 Cl4 103.76(18) . . ?
Cl2 Ba6 Cl4 127.84(5) . . ?
O2 Ba6 Cl6 72.52(10) . 2 ?
O1 Ba6 Cl6 105.41(10) . 2 ?
B1 Ba6 Cl6 84.25(15) . 2 ?
Cl2 Ba6 Cl6 152.39(5) . 2 ?
Cl4 Ba6 Cl6 75.17(5) . 2 ?
O2 Ba6 Cl2 103.96(12) . 3_566 ?
O1 Ba6 Cl2 73.11(11) . 3_566 ?
B1 Ba6 Cl2 83.67(17) . 3_566 ?
Cl2 Ba6 Cl2 77.66(5) . 3_566 ?
Cl4 Ba6 Cl2 149.51(5) . 3_566 ?
Cl6 Ba6 Cl2 76.25(5) 2 3_566 ?
O2 Ba6 Cl3 143.38(10) . . ?
O1 Ba6 Cl3 148.84(11) . . ?
B1 Ba6 Cl3 151.85(14) . . ?
Cl2 Ba6 Cl3 93.08(5) . . ?
Cl4 Ba6 Cl3 85.01(5) . . ?
Cl6 Ba6 Cl3 72.05(5) 2 . ?
Cl2 Ba6 Cl3 76.24(5) 3_566 . ?
O2 Ba6 Cl5 129.48(11) . 2_455 ?
O1 Ba6 Cl5 128.98(10) . 2_455 ?
B1 Ba6 Cl5 140.90(15) . 2_455 ?
Cl2 Ba6 Cl5 66.11(5) . 2_455 ?
Cl4 Ba6 Cl5 65.35(5) . 2_455 ?
Cl6 Ba6 Cl5 124.37(5) 2 2_455 ?
Cl2 Ba6 Cl5 125.60(5) 3_566 2_455 ?
Cl3 Ba6 Cl5 67.12(5) . 2_455 ?
O2 Ba6 Cl7 71.73(10) . 1_455 ?
O1 Ba6 Cl7 71.69(11) . 1_455 ?
B1 Ba6 Cl7 75.47(15) . 1_455 ?
Cl2 Ba6 Cl7 71.38(5) . 1_455 ?
Cl4 Ba6 Cl7 72.19(5) . 1_455 ?
Cl6 Ba6 Cl7 135.71(5) 2 1_455 ?
Cl2 Ba6 Cl7 137.75(5) 3_566 1_455 ?
Cl3 Ba6 Cl7 132.39(5) . 1_455 ?
Cl5 Ba6 Cl7 65.43(4) 2_455 1_455 ?
O2 Ba6 Ba1 72.34(10) . . ?
O1 Ba6 Ba1 33.41(10) . . ?
B1 Ba6 Ba1 54.53(15) . . ?
Cl2 Ba6 Ba1 50.80(4) . . ?
Cl4 Ba6 Ba1 117.63(4) . . ?
Cl6 Ba6 Ba1 138.18(4) 2 . ?
Cl2 Ba6 Ba1 90.98(4) 3_566 . ?
Cl3 Ba6 Ba1 143.76(4) . . ?
Cl5 Ba6 Ba1 95.60(3) 2_455 . ?
Cl7 Ba6 Ba1 47.06(4) 1_455 . ?
O2 Ba6 Ba2 33.38(11) . . ?
O1 Ba6 Ba2 71.54(11) . . ?
B1 Ba6 Ba2 53.97(17) . . ?
Cl2 Ba6 Ba2 115.50(4) . . ?
Cl4 Ba6 Ba2 53.61(4) . . ?
Cl6 Ba6 Ba2 89.99(4) 2 . ?
Cl2 Ba6 Ba2 136.79(4) 3_566 . ?
Cl3 Ba6 Ba2 138.24(4) . . ?
Cl5 Ba6 Ba2 96.12(3) 2_455 . ?
Cl7 Ba6 Ba2 46.35(3) 1_455 . ?
Ba1 Ba6 Ba2 72.340(17) . . ?
Ba1 Cl1 Ba5 94.55(5) . 3_556 ?
Ba1 Cl1 Ba4 91.78(5) . 4_566 ?
Ba5 Cl1 Ba4 91.18(5) 3_556 4_566 ?
Ba1 Cl1 Ba2 161.75(7) . 3_556 ?
Ba5 Cl1 Ba2 103.07(5) 3_556 3_556 ?
Ba4 Cl1 Ba2 83.24(5) 4_566 3_556 ?
Ba1 Cl1 Ba1 81.72(5) . 3_556 ?
Ba5 Cl1 Ba1 102.46(6) 3_556 3_556 ?
Ba4 Cl1 Ba1 165.26(6) 4_566 3_556 ?
Ba2 Cl1 Ba1 98.83(5) 3_556 3_556 ?
Ba6 Cl2 Ba6 102.34(5) . 3_566 ?
Ba6 Cl2 Ba3 108.64(6) . 1_455 ?
Ba6 Cl2 Ba3 147.42(6) 3_566 1_455 ?
Ba6 Cl2 Ba1 83.84(4) . . ?
Ba6 Cl2 Ba1 102.60(6) 3_566 . ?
Ba3 Cl2 Ba1 90.68(5) 1_455 . ?
Ba6 Cl2 Ba3 90.58(5) . 3_566 ?
Ba6 Cl2 Ba3 90.14(5) 3_566 3_566 ?
Ba3 Cl2 Ba3 79.86(5) 1_455 3_566 ?
Ba1 Cl2 Ba3 166.91(7) . 3_566 ?
Ba6 Cl3 Ba1 105.38(6) . 3_566 ?
Ba6 Cl3 Ba2 95.87(5) . 2_455 ?
Ba1 Cl3 Ba2 156.63(6) 3_566 2_455 ?
Ba6 Cl3 Ba4 108.26(5) . 2 ?
Ba1 Cl3 Ba4 90.86(5) 3_566 2 ?
Ba2 Cl3 Ba4 91.61(5) 2_455 2 ?
Ba6 Cl3 Ba3 90.22(5) . 3_566 ?
Ba1 Cl3 Ba3 81.78(5) 3_566 3_566 ?
Ba2 Cl3 Ba3 88.64(5) 2_455 3_566 ?
Ba4 Cl3 Ba3 161.38(6) 2 3_566 ?
Ba6 Cl4 Ba5 104.33(6) . 2 ?
Ba6 Cl4 Ba4 107.85(5) . 1_455 ?
Ba5 Cl4 Ba4 147.81(7) 2 1_455 ?
Ba6 Cl4 Ba2 81.15(5) . . ?
Ba5 Cl4 Ba2 98.15(5) 2 . ?
Ba4 Cl4 Ba2 87.87(5) 1_455 . ?
Ba6 Cl4 Ba2 92.90(5) . 2_455 ?
Ba5 Cl4 Ba2 98.39(5) 2 2_455 ?
Ba4 Cl4 Ba2 79.13(4) 1_455 2_455 ?
Ba2 Cl4 Ba2 163.35(6) . 2_455 ?
Ba2 Cl5 Ba3 93.42(5) . 4_565 ?
Ba2 Cl5 Ba3 162.50(7) . 2_545 ?
Ba3 Cl5 Ba3 85.52(5) 4_565 2_545 ?
Ba2 Cl5 Ba4 85.19(5) . 2_545 ?
Ba3 Cl5 Ba4 167.17(6) 4_565 2_545 ?
Ba3 Cl5 Ba4 91.97(5) 2_545 2_545 ?
Ba2 Cl5 Ba6 94.01(4) . 2_445 ?
Ba3 Cl5 Ba6 90.21(5) 4_565 2_445 ?
Ba3 Cl5 Ba6 103.46(5) 2_545 2_445 ?
Ba4 Cl5 Ba6 102.60(5) 2_545 2_445 ?
Ba5 Cl6 Ba6 104.45(6) . 2_545 ?
Ba5 Cl6 Ba2 109.62(5) . . ?
Ba6 Cl6 Ba2 144.39(7) 2_545 . ?
Ba5 Cl6 Ba4 83.65(5) . . ?
Ba6 Cl6 Ba4 110.61(6) 2_545 . ?
Ba2 Cl6 Ba4 83.57(4) . . ?
Ba5 Cl6 Ba4 89.21(5) . 2_545 ?
Ba6 Cl6 Ba4 90.74(5) 2_545 2_545 ?
Ba2 Cl6 Ba4 79.84(5) . 2_545 ?
Ba4 Cl6 Ba4 158.55(6) . 2_545 ?
Ba2 Cl7 Ba1 106.84(6) 1_655 1_655 ?
Ba2 Cl7 Ba5 105.37(6) 1_655 . ?
Ba1 Cl7 Ba5 105.00(6) 1_655 . ?
Ba2 Cl7 Ba6 82.40(4) 1_655 1_655 ?
Ba1 Cl7 Ba6 81.58(5) 1_655 1_655 ?
Ba5 Cl7 Ba6 167.43(6) . 1_655 ?
Ba5 Cl8 Ba5 106.46(6) . 3_656 ?
Ba5 Cl8 Ba1 142.99(6) . 3_656 ?
Ba5 Cl8 Ba1 110.48(6) 3_656 3_656 ?
Ba5 Cl8 Ba1 99.98(6) . 1_655 ?
Ba5 Cl8 Ba1 92.69(5) 3_656 1_655 ?
Ba1 Cl8 Ba1 80.70(5) 3_656 1_655 ?
Ba5 Cl8 Ba3 104.03(6) . 3_656 ?
Ba5 Cl8 Ba3 80.56(4) 3_656 3_656 ?
Ba1 Cl8 Ba3 80.21(5) 3_656 3_656 ?
Ba1 Cl8 Ba3 155.99(7) 1_655 3_656 ?
Ba5 Cl9 Ba2 105.57(5) . 2_545 ?
Ba5 Cl9 Ba1 97.11(5) . 3_556 ?
Ba2 Cl9 Ba1 154.49(6) 2_545 3_556 ?
Ba5 Cl9 Ba3 109.77(6) . 3_656 ?
Ba2 Cl9 Ba3 91.17(5) 2_545 3_656 ?
Ba1 Cl9 Ba3 92.03(5) 3_556 3_656 ?
Ba5 Cl9 Ba4 90.79(5) . 2_545 ?
Ba2 Cl9 Ba4 80.71(5) 2_545 2_545 ?
Ba1 Cl9 Ba4 87.55(5) 3_556 2_545 ?
Ba3 Cl9 Ba4 159.31(6) 3_656 2_545 ?
O3 B1 O2 120.2(6) . . ?
O3 B1 O1 119.8(8) . . ?
O2 B1 O1 119.7(6) . . ?
O3 B1 Ba3 61.5(4) . . ?
O2 B1 Ba3 152.2(5) . . ?
O1 B1 Ba3 63.2(4) . . ?
O3 B1 Ba4 61.3(3) . . ?
O2 B1 Ba4 63.2(3) . . ?
O1 B1 Ba4 153.7(5) . . ?
Ba3 B1 Ba4 101.8(2) . . ?
O3 B1 Ba6 153.5(5) . . ?
O2 B1 Ba6 61.9(4) . . ?
O1 B1 Ba6 62.2(4) . . ?
Ba3 B1 Ba6 103.7(2) . . ?
Ba4 B1 Ba6 104.6(3) . . ?
B1 O1 Ba1 127.1(4) . . ?
B1 O1 Ba3 89.3(4) . . ?
Ba1 O1 Ba3 112.87(19) . . ?
B1 O1 Ba6 90.7(4) . . ?
Ba1 O1 Ba6 110.69(17) . . ?
Ba3 O1 Ba6 124.49(17) . . ?
B1 O2 Ba2 125.2(4) . . ?
B1 O2 Ba6 91.1(4) . . ?
Ba2 O2 Ba6 111.08(17) . . ?
B1 O2 Ba4 89.6(4) . . ?
Ba2 O2 Ba4 111.91(17) . . ?
Ba6 O2 Ba4 126.13(18) . . ?
B1 O3 Ba5 128.5(4) . . ?
B1 O3 Ba3 91.5(4) . . ?
Ba5 O3 Ba3 111.49(19) . . ?
B1 O3 Ba4 91.8(4) . . ?
Ba5 O3 Ba4 109.30(17) . . ?
Ba3 O3 Ba4 124.02(18) . . ?
loop_
_geom_bond_atom_site_label_1
_geom_bond_atom_site_label_2
_geom_bond_distance
_geom_bond_site_symmetry_2
_geom_bond_publ_flag
Ba1 O1 2.525(4) . ?
Ba1 Cl7 3.175(2) 1_455 ?
Ba1 Cl8 3.208(2) 3_656 ?
Ba1 Cl3 3.220(2) 3_566 ?
Ba1 Cl1 3.2425(19) . ?
Ba1 Cl9 3.2922(19) 3_556 ?
Ba1 Cl2 3.344(2) . ?
Ba1 Cl1 3.3916(19) 3_556 ?
Ba1 Cl8 3.490(2) 1_455 ?
Ba1 Ba6 4.2904(8) . ?
Ba1 Ba3 4.3417(12) . ?
Ba1 Ba1 4.3418(10) 3_556 ?
Ba2 O2 2.539(5) . ?
Ba2 Cl7 3.143(2) 1_455 ?
Ba2 Cl5 3.1772(19) . ?
Ba2 Cl6 3.211(2) . ?
Ba2 Cl9 3.2246(18) 2 ?
Ba2 Cl3 3.264(2) 2_445 ?
Ba2 Cl1 3.288(2) 3_556 ?
Ba2 Cl4 3.508(2) . ?
Ba2 Cl4 3.517(2) 2_445 ?
Ba2 Ba6 4.3057(8) . ?
Ba2 Ba4 4.3385(12) . ?
Ba2 Ba4 4.3593(8) 2_545 ?
Ba3 O3 2.643(5) . ?
Ba3 O1 2.684(5) . ?
Ba3 B1 3.006(9) . ?
Ba3 Cl5 3.2286(19) 4_666 ?
Ba3 Cl5 3.2373(18) 2 ?
Ba3 Cl9 3.303(2) 3_656 ?
Ba3 Cl2 3.327(2) 1_655 ?
Ba3 Cl3 3.408(2) 3_566 ?
Ba3 Cl2 3.509(2) 3_566 ?
Ba3 Cl8 3.521(2) 3_656 ?
Ba3 Ba5 4.3037(8) . ?
Ba4 O3 2.652(5) . ?
Ba4 O2 2.696(5) . ?
Ba4 B1 3.020(8) . ?
Ba4 Cl5 3.263(2) 2 ?
Ba4 Cl1 3.275(2) 4_665 ?
Ba4 Cl6 3.299(2) . ?
Ba4 Cl4 3.323(2) 1_655 ?
Ba4 Cl3 3.3477(19) 2_545 ?
Ba4 Cl9 3.469(2) 2 ?
Ba4 Cl6 3.569(2) 2 ?
Ba4 Ba5 4.2547(8) . ?
Ba5 O3 2.564(5) . ?
Ba5 Cl6 3.076(2) . ?
Ba5 Cl9 3.0926(18) . ?
Ba5 Cl8 3.111(2) . ?
Ba5 Cl8 3.1186(19) 3_656 ?
Ba5 Cl4 3.1442(19) 2_545 ?
Ba5 Cl7 3.2046(19) . ?
Ba5 Cl1 3.275(2) 3_556 ?
Ba6 O2 2.683(5) . ?
Ba6 O1 2.689(5) . ?
Ba6 B1 3.040(8) . ?
Ba6 Cl2 3.0707(19) . ?
Ba6 Cl4 3.094(2) . ?
Ba6 Cl6 3.1570(18) 2 ?
Ba6 Cl2 3.201(2) 3_566 ?
Ba6 Cl3 3.2028(18) . ?
Ba6 Cl5 3.384(2) 2_455 ?
Ba6 Cl7 3.3878(19) 1_455 ?
B1 O3 1.365(9) . ?
B1 O2 1.379(11) . ?
B1 O1 1.384(9) . ?
