#------------------------------------------------------------------------------
#$Date: 2020-07-06 05:05:13 +0300 (Mon, 06 Jul 2020) $
#$Revision: 253824 $
#$URL: file:///home/coder/svn-repositories/cod/cif/7/12/64/7126432.cif $
#------------------------------------------------------------------------------
#
# This file is available in the Crystallography Open Database (COD),
# http://www.crystallography.net/
#
# All data on this site have been placed in the public domain by the
# contributors.
#
data_7126432
loop_
_publ_author_name
'Li, Wei'
'Wu, Hongping'
'Yu, Hongwei'
'Hu, Zhanggui'
'Wang, Jiyang'
'Wu, Yicheng'
_publ_section_title
;
 Ba<sub>6</sub>BO<sub>3</sub>Cl<sub>9</sub> and
 Pb<sub>6</sub>BO<sub>4</sub>Cl<sub>7</sub>: structural insights into
 ortho-borates with uncondensed BO<sub>4</sub> tetrahedra.
;
_journal_issue                   45
_journal_name_full
'Chemical communications (Cambridge, England)'
_journal_page_first              6086
_journal_page_last               6089
_journal_paper_doi               10.1039/d0cc01927e
_journal_volume                  56
_journal_year                    2020
_chemical_formula_sum            'B Cl7 O4 Pb6'
_chemical_formula_weight         1566
_space_group_crystal_system      triclinic
_space_group_IT_number           2
_space_group_name_Hall           '-P 1'
_space_group_name_H-M_alt        'P -1'
_audit_creation_method           SHELXL-2018/3
_audit_update_record
;
2019-12-12 deposited with the CCDC.	2020-04-22 downloaded from the CCDC.
;
_cell_angle_alpha                89.522(13)
_cell_angle_beta                 89.663(14)
_cell_angle_gamma                69.942(12)
_cell_formula_units_Z            2
_cell_length_a                   8.001(3)
_cell_length_b                   8.054(3)
_cell_length_c                   13.116(5)
_cell_measurement_reflns_used    2685
_cell_measurement_temperature    300(2)
_cell_measurement_theta_max      30.18
_cell_measurement_theta_min      3.10
_cell_volume                     793.9(5)
_computing_structure_refinement  'SHELXL-2018/3 (Sheldrick, 2018)'
_computing_structure_solution    'SHELXT 2014/5 (Sheldrick, 2014)'
_diffrn_ambient_temperature      300(2)
_diffrn_measured_fraction_theta_full 0.998
_diffrn_measured_fraction_theta_max 0.996
_diffrn_measurement_device_type  'Bruker APEX-II CCD'
_diffrn_measurement_method       '\f and \w scans'
_diffrn_radiation_type           MoK\a
_diffrn_radiation_wavelength     0.71073
_diffrn_reflns_av_R_equivalents  0.0734
_diffrn_reflns_av_unetI/netI     0.0883
_diffrn_reflns_Laue_measured_fraction_full 0.998
_diffrn_reflns_Laue_measured_fraction_max 0.996
_diffrn_reflns_limit_h_max       10
_diffrn_reflns_limit_h_min       -10
_diffrn_reflns_limit_k_max       10
_diffrn_reflns_limit_k_min       -10
_diffrn_reflns_limit_l_max       17
_diffrn_reflns_limit_l_min       -17
_diffrn_reflns_number            10851
_diffrn_reflns_point_group_measured_fraction_full 0.998
_diffrn_reflns_point_group_measured_fraction_max 0.996
_diffrn_reflns_theta_full        25.242
_diffrn_reflns_theta_max         28.282
_diffrn_reflns_theta_min         2.692
_exptl_absorpt_coefficient_mu    64.562
_exptl_crystal_colour            colorless
_exptl_crystal_density_diffrn    6.551
_exptl_crystal_description       bulk
_exptl_crystal_F_000             1296
_exptl_crystal_size_max          0.024
_exptl_crystal_size_mid          0.021
_exptl_crystal_size_min          0.016
_refine_diff_density_max         2.142
_refine_diff_density_min         -2.991
_refine_diff_density_rms         0.540
_refine_ls_extinction_method     none
_refine_ls_goodness_of_fit_ref   1.005
_refine_ls_hydrogen_treatment    undef
_refine_ls_matrix_type           full
_refine_ls_number_parameters     163
_refine_ls_number_reflns         3944
_refine_ls_number_restraints     0
_refine_ls_restrained_S_all      1.005
_refine_ls_R_factor_all          0.0832
_refine_ls_R_factor_gt           0.0481
_refine_ls_shift/su_max          0.001
_refine_ls_shift/su_mean         0.000
_refine_ls_structure_factor_coef Fsqd
_refine_ls_weighting_details
'w=1/[\s^2^(Fo^2^)+(0.0309P)^2^] where P=(Fo^2^+2Fc^2^)/3'
_refine_ls_weighting_scheme      calc
_refine_ls_wR_factor_gt          0.0930
_refine_ls_wR_factor_ref         0.1089
_reflns_Friedel_coverage         0.000
_reflns_number_gt                2798
_reflns_number_total             3944
_reflns_threshold_expression     'I > 2\s(I)'
_cod_data_source_file            d0cc01927e2.cif
_cod_data_source_block           gh_a
_cod_depositor_comments
'Adding full bibliography for 7126431--7126432.cif.'
_cod_database_code               7126432
_shelx_shelxl_version_number     2018/3
_shelx_space_group_comment
;
The symmetry employed for this shelxl refinement is uniquely defined
by the following loop, which should always be used as a source of
symmetry information in preference to the above space-group names.
They are only intended as comments.
;
_shelx_res_file
;
TITL gh_a.res in P-1
    gh_a.res
    created by SHELXL-2018/3 at 22:59:24 on 08-Sep-2019
REM Old TITL gh in P-1
REM SHELXT solution in P-1
REM R1 0.114,  Rweak 0.008,  Alpha 0.029,  Orientation as input
REM Formula found by SHELXT:  Cl7 O3 Pb6
CELL  0.71073   8.0012   8.0539  13.1160   89.522   89.663   69.942
ZERR    8.000   0.0028   0.0031   0.0046    0.013    0.014    0.012
LATT  1
SFAC B CL O PB
UNIT 2 14 8 12
TEMP 26.850
L.S. 10
BOND $H
LIST 4
FMAP 2
acta
PLAN 10
WGHT    0.030900
FVAR       0.15533
PB01  4    0.108000    0.010915    0.867857    11.00000    0.03787    0.03433 =
         0.02762    0.00154    0.00143   -0.02020
B1    1    0.221562    0.261438    0.749231    11.00000    0.02208    0.04659 =
         0.01489   -0.01137   -0.00370   -0.01538
O1    3    0.040389    0.254887    0.749440    11.00000    0.02000    0.02073 =
         0.03907    0.01241   -0.00592   -0.00438
PB02  4    0.545760   -0.017855    0.676549    11.00000    0.02659    0.02566 =
         0.03597   -0.00156    0.00196   -0.00704
CL2   2    0.016560   -0.150401    0.684279    11.00000    0.03470    0.03127 =
         0.03541    0.00119   -0.00121   -0.00991
PB03  4    0.438534    0.289332    0.925397    11.00000    0.03334    0.03855 =
         0.02783   -0.00740   -0.00317   -0.01488
CL3   2    0.720253   -0.066486    0.935381    11.00000    0.02823    0.03584 =
         0.02896    0.00126   -0.00347   -0.00944
PB04  4    0.358358    0.513768    0.648887    11.00000    0.03889    0.03268 =
         0.02965    0.00604   -0.00175   -0.01760
PB05  4    0.037900    0.200457    0.572864    11.00000    0.03476    0.03196 =
         0.03070   -0.00332   -0.01037   -0.01109
PB06  4   -0.094537    0.547524    0.807514    11.00000    0.03100    0.02989 =
         0.03506   -0.00014    0.00539   -0.00302
CL07  2    0.448759    0.701132    0.816476    11.00000    0.03806    0.02987 =
         0.04279   -0.00282   -0.00465   -0.01710
CL09  2    0.650948    0.131676    0.490494    11.00000    0.03415    0.03271 =
         0.03107   -0.00099    0.00094   -0.01541
CL0A  2    0.657219    0.266958    0.746555    11.00000    0.02669    0.03450 =
         0.03904    0.00025   -0.00493   -0.01460
CL0B  2   -0.195477    0.566464    0.580393    11.00000    0.04869    0.02850 =
         0.03254    0.00209   -0.00207   -0.00763
CL0D  2   -0.136714    0.358338    0.984775    11.00000    0.05407    0.03414 =
         0.03464    0.00266    0.00709   -0.00584
O00E  3    0.293028    0.227212    0.644365    11.00000    0.02594    0.01912 =
         0.01119   -0.00867    0.00530   -0.00866
O00F  3    0.218496    0.435848    0.785435    11.00000    0.03434    0.02343 =
         0.02350    0.00200   -0.00080   -0.02047
O00G  3    0.335396    0.121668    0.819205    11.00000    0.02841    0.03266 =
         0.00947   -0.00089    0.00546   -0.01541
HKLF 4




REM  gh_a.res in P-1
REM wR2 = 0.108904, GooF = S = 1.00491, Restrained GooF = 1.00491 for all data
REM R1 = 0.048106 for 2798 Fo > 4sig(Fo) and 0.083247 for all 3944 data
REM 163 parameters refined using 0 restraints

END

WGHT      0.0274      0.0000

REM Highest difference peak  2.142,  deepest hole -2.991,  1-sigma level  0.540
Q1    1   0.0010  0.0646  0.8404  11.00000  0.05    2.14
Q2    1   0.5288  0.3179  0.6353  11.00000  0.05    2.00
Q3    1   0.3395  0.0386  0.6174  11.00000  0.05    1.87
Q4    1  -0.0735 -0.1957  0.7605  11.00000  0.05    1.83
Q5    1   0.4471  0.0268  0.6758  11.00000  0.05    1.80
Q6    1  -0.2022  0.5765  0.7994  11.00000  0.05    1.78
Q7    1   0.8074 -0.0677  0.5403  11.00000  0.05    1.75
Q8    1   0.8163  0.0923  0.7250  11.00000  0.05    1.75
Q9    1   0.1041 -0.0132  0.9205  11.00000  0.05    1.74
Q10   1  -0.3012  0.6156  0.7366  11.00000  0.05    1.74
;
_shelx_res_checksum              58476
_shelx_hkl_file
;
   0   1   0    7.00    2.60
   0   1   0   16.90    6.70
   0   1   0   11.40    3.10
   0  -1   0   12.80    3.30
   0  -1   0    8.80    3.10
   0  -1   0   19.50    7.40
   0   2   0 1454.35   88.29
   0   2   0 1721.33  105.29
   0   2   0 1544.35   88.09
   0  -2   0 1411.56   88.29
   0  -2   0 1600.54   89.19
   0  -2   0 1627.44  111.49
   0   3   0    7.90    4.30
   0   3   0   15.60    9.50
   0   3   0   -2.80    3.40
   0  -3   0   10.90    6.10
   0  -3   0    4.90    5.00
   0  -3   0    4.30    8.50
   0   4   0 3834.82  217.28
   0   4   0 4220.58  216.68
   0  -4   0 3859.01  218.48
   0  -4   0 3893.61  263.87
   0  -4   0 3778.62  216.08
   0   5   0   56.99   15.60
   0  -5   0   96.69   37.90
   0  -5   0  104.19   19.80
   0   6   0  671.33   57.49
   0  -6   0  658.43   55.49
   0  -6   0  630.34   89.19
   0   7   0  295.47   35.80
   0   7   0  222.98   50.09
   0  -7   0  279.37   33.20
   0  -7   0  248.98   67.79
   0   8   0   10.00   10.10
   0   8   0   19.80   17.70
   0  -8   0   12.10   10.50
   0   9   0   50.99   19.20
   0   9   0   70.39   29.90
   0  -9   0  -11.50   36.80
   0  10   0   52.59   17.30
   0  10   0   74.99   41.30
   0 -10   0   -1.10   41.30
   0 -10   0   83.19   21.20
   1  -9   0   67.79   48.40
   1  -9   0   81.29   21.50
  -1   9   0  120.59   41.30
   1  -8   0   28.40   36.10
  -1   8   0   -4.50   19.80
  -1   8   0   46.00   16.90
  -1   7   0    8.50    6.30
  -1   7   0   -4.90    9.40
   1  -6   0   17.30    8.30
  -1   6   0   14.80    8.60
   1  -5   0 2249.38  141.19
  -1   5   0 2651.93  167.88
  -1   5   0 2138.59  139.29
   1  -4   0  168.18   22.10
   1  -4   0  110.59   39.10
   1  -4   0  213.38   24.10
  -1   4   0  194.58   22.60
   1  -3   0  550.44   40.90
   1  -3   0  375.86   59.19
   1  -3   0  529.95   39.60
  -1   3   0  522.35   39.80
  -1   3   0  560.04   37.90
  -1   3   0  578.44   58.79
   1  -2   0    1.20    2.20
   1  -2   0   -0.20    1.40
   1  -2   0    3.30    8.80
  -1   2   0   -2.10    3.80
  -1   2   0   -0.70    1.80
  -1   2   0   -0.60    2.00
   1  -1   0  287.77   19.00
   1  -1   0  201.88   31.90
   1  -1   0  242.68   19.60
  -1   1   0  265.27   18.30
  -1   1   0  219.78   31.80
  -1   1   0  265.77   17.70
   1   0   0    4.70    2.60
   1   0   0    1.20    1.40
   1   0   0    1.10    0.90
   1   0   0    2.10    5.40
  -1   0   0    3.00    2.00
  -1   0   0    1.10    5.70
  -1   0   0    1.00    0.90
  -1   0   0    1.10    1.10
   1   1   0  238.58   15.60
   1   1   0  261.67   20.70
  -1  -1   0  238.58   21.30
  -1  -1   0  248.28   15.90
   1   2   0    0.60    3.20
   1   2   0   -1.40    2.50
  -1  -2   0   -1.40    2.50
  -1  -2   0    9.80    4.10
   1   3   0 1572.54   94.99
  -1  -3   0 1492.75   94.49
  -1  -3   0 1598.64   96.49
   1   4   0  150.18   20.70
   1   4   0  140.49   23.70
  -1  -4   0  156.28   27.90
  -1  -4   0  120.89   23.00
  -1  -4   0  142.89   24.60
   1   5   0  331.07   35.90
  -1  -5   0  356.66   53.19
  -1  -5   0  381.56   36.60
   1   6   0   53.89   16.50
  -1  -6   0   45.90   24.80
  -1  -6   0   53.99   15.10
   1   7   0  269.87   34.00
  -1  -7   0  202.48   59.59
  -1  -7   0  306.37   34.00
   1   8   0  378.26   53.89
   1   8   0  379.26   43.70
  -1  -8   0  260.87   70.29
  -1  -8   0  263.77   33.40
   1   9   0  264.17   59.49
   1   9   0  222.48   38.50
  -1  -9   0  288.87   34.90
  -1  -9   0  169.58   59.09
   1  10   0   93.89   24.10
   1  10   0  136.79   48.90
  -1 -10   0  100.19   21.50
  -1 -10   0  107.59   48.20
   2  -9   0   38.50   20.30
   2  -9   0  -44.60   36.50
  -2   9   0   42.80   18.60
  -2   9   0   58.29   31.50
   2  -8   0  122.49   32.20
   2  -8   0  104.79   52.69
  -2   8   0  164.28   29.50
  -2   8   0  137.09   38.80
  -2   7   0  427.16   54.49
  -2   7   0  361.26   41.50
   2  -6   0   19.00   24.20
  -2   6   0   21.50   14.70
  -2   6   0   13.00    6.40
  -2   5   0  945.91   68.89
   2  -4   0   91.79   18.10
   2  -4   0   75.39   32.20
  -2   4   0   94.99   18.30
  -2   4   0   82.69   28.80
   2  -3   0  848.62   55.69
   2  -3   0  764.72   59.19
  -2   3   0  872.71   88.09
  -2   3   0  768.42   51.49
  -2   3   0  764.22   53.89
   2  -2   0  121.59   16.50
   2  -2   0  127.79   41.10
   2  -2   0  160.38   16.00
  -2   2   0  114.09   13.90
  -2   2   0  132.99   13.60
  -2   2   0  145.39   39.50
   2  -1   0  808.12   45.80
   2  -1   0  672.33   81.89
   2  -1   0  791.52   50.29
  -2   1   0  738.53   45.70
  -2   1   0  706.83   81.19
  -2   1   0  760.42   48.70
  -2   1   0  781.42   45.20
   2   0   0 2744.13  142.09
   2   0   0 2746.13  149.69
   2   0   0 2795.42  146.89
  -2   0   0 2665.13  142.29
  -2   0   0 2803.52  148.99
   2   1   0  253.57   24.40
   2   1   0  254.97   26.40
   2   1   0  245.38   16.50
  -2  -1   0  270.87   29.70
  -2  -1   0  249.38   16.90
   2   2   0   96.99   17.40
   2   2   0   88.79    9.20
  -2  -2   0   85.69   18.30
  -2  -2   0   89.69   10.10
   2   3   0   33.20   11.30
   2   3   0   21.70    7.00
  -2  -3   0    9.30    6.00
  -2  -3   0   15.50    9.20
   2   4   0 4120.39  228.18
  -2  -4   0 4049.99  226.48
  -2  -5   0   14.50    6.90
   2   6   0  537.55   53.09
  -2  -6   0  594.34   53.49
  -2  -6   0  737.23   71.79
   2   7   0   -1.70    8.90
  -2  -7   0    0.20   14.10
  -2  -7   0    3.90    8.50
   2   8   0   76.29   34.60
   2   8   0   93.29   26.20
  -2  -8   0  106.19   36.60
  -2  -8   0   74.09   17.80
   2   9   0   -1.60   10.90
   2   9   0  -17.10   16.20
  -2  -9   0    8.70   29.60
  -2  -9   0    4.20    7.60
   2  10   0   33.40   41.70
  -2 -10   0   59.29   22.70
  -2 -10   0  124.19   47.70
   3  -8   0   32.10   36.60
   3  -8   0   48.50   19.50
  -3   8   0   -6.70   19.60
  -3   8   0    2.70   11.70
   3  -7   0   -3.80   35.70
   3  -7   0   -2.00    9.10
  -3   7   0   -6.40    7.10
  -3   7   0   -8.10   14.80
   3  -6   0  -23.20   26.10
   3  -6   0   -2.30    9.30
  -3   6   0   -0.80    7.10
  -3   6   0    7.40   10.70
   3  -5   0   48.00   18.10
   3  -5   0   68.79   34.80
  -3   5   0   69.39   17.20
  -3   5   0   80.69   16.90
   3  -4   0   27.80   26.20
   3  -4   0   49.10   16.40
  -3   4   0   47.60   12.00
   3  -3   0 1781.52  102.59
   3  -3   0 1754.72  110.59
  -3   3   0 1634.14  150.48
  -3   3   0 1663.83  101.69
   3  -2   0  365.36   33.10
   3  -2   0  313.37   26.60
   3  -2   0  306.37   58.79
  -3   2   0  298.27   56.99
  -3   2   0  331.47   26.30
  -3   2   0  348.97   26.10
  -3   2   0  320.87   27.10
   3  -1   0  124.99   12.80
   3  -1   0  142.59   45.40
   3  -1   0  145.19   22.00
  -3   1   0  124.99   13.20
  -3   1   0   70.19   32.40
  -3   1   0  149.49   17.10
   3   0   0   22.80    7.00
   3   0   0   35.10    6.30
   3   0   0   34.30   10.60
  -3   0   0   46.00    7.70
  -3   0   0   47.40   11.30
  -3   0   0   16.60   15.20
   3   1   0 1707.53   92.59
   3   1   0 1869.51  109.79
   3   1   0 1839.12  106.59
  -3  -1   0 1665.53   93.49
  -3  -1   0 1692.43  107.19
   3   2   0  241.88   26.10
   3   2   0  219.38   17.00
   3   2   0  252.07   30.00
  -3  -2   0  160.08   30.40
  -3  -2   0  241.58   18.20
   3   3   0 2493.45  140.89
   3   3   0 2704.23  154.08
  -3  -3   0 2707.03  165.38
  -3  -3   0 2676.73  144.19
   3   4   0    1.90    4.40
   3   4   0    7.60    8.20
  -3  -4   0    9.30    5.50
  -3  -4   0    8.90    8.90
   3   5   0 1243.58   86.59
   3   5   0 1327.37   92.49
  -3  -5   0 1394.76   90.49
   3   6   0   -5.00    6.70
  -3  -6   0   14.60    8.30
   3   7   0 2196.78  173.08
   3   7   0 2004.40  137.29
  -3  -7   0 2309.97  161.98
  -3  -7   0 1984.70  132.89
   3   8   0   85.29   40.30
  -3  -8   0   68.69   19.00
  -3  -8   0  106.79   33.50
   3   9   0   50.09   32.80
   3   9   0  105.09   26.90
  -3  -9   0  121.29   36.80
  -3  -9   0  124.89   25.00
   3  10   0   27.40   15.70
   3  10   0    7.60   20.70
  -3 -10   0  -12.20   21.60
   4  -7   0   -2.10   13.10
   4  -7   0  -35.80   24.40
  -4   7   0   26.10   15.70
  -4   7   0   -3.70    8.80
   4  -6   0    8.40   23.50
   4  -6   0   20.10   14.90
  -4   6   0    8.70    6.90
  -4   6   0   -3.00   10.00
  -4   6   0    1.30   21.20
   4  -5   0   74.39   20.20
   4  -5   0   22.80   29.80
  -4   5   0   44.70   19.90
  -4   5   0   39.70   12.60
  -4   5   0   33.90   11.20
   4  -4   0  953.30   74.89
  -4   4   0  912.01   65.09
  -4   4   0  938.81   58.79
   4  -3   0   54.89   15.70
   4  -3   0   38.60   11.10
   4  -3   0  -11.00   22.80
  -4   3   0   74.39   14.60
   4  -2   0  562.84   93.09
   4  -2   0  560.54   40.20
   4  -2   0  570.04   48.90
  -4   2   0  553.54   40.70
   4  -1   0  410.86   29.40
   4  -1   0  426.96   38.40
   4  -1   0  408.36   95.19
  -4   1   0  306.37   76.59
  -4   1   0  419.66   35.50
  -4   1   0  412.46   30.50
   4   0   0  519.45   43.80
   4   0   0  529.05   32.60
   4   0   0  496.75   39.90
  -4   0   0  412.06   78.19
  -4   0   0  506.35   34.00
  -4   0   0  501.95   41.20
   4   1   0  497.65   46.20
   4   1   0  528.85   45.50
   4   1   0  537.45   32.50
  -4  -1   0  447.66   81.49
  -4  -1   0  585.24   45.90
  -4  -1   0  507.55   33.80
   4   2   0 2354.26  142.99
   4   2   0 2249.87  120.79
   4   2   0 2140.19  135.09
  -4  -2   0 2310.07  146.19
  -4  -2   0 2311.47  122.89
   4   3   0    2.80    4.90
   4   3   0    2.00    2.70
   4   3   0   -0.40    4.90
  -4  -3   0    3.30    3.30
   4   4   0   89.99   20.00
   4   4   0   74.39   12.30
   4   4   0   44.20   18.40
  -4  -4   0   56.89   13.00
  -4  -4   0   56.89   22.90
   4   5   0  263.97   30.40
   4   5   0  190.18   41.60
   4   5   0  224.18   22.90
  -4  -5   0  244.68   27.30
   4   6   0  688.03   80.39
   4   6   0  729.83   60.39
  -4  -6   0  672.33   56.39
   4   7   0   26.10   12.20
   4   7   0   30.70   18.90
  -4  -7   0   46.80   13.70
   4   8   0    1.90    8.30
   4   8   0   18.50   11.10
  -4  -8   0   32.90   11.70
   4   9   0   23.10   12.70
   4   9   0   25.00   23.50
  -4  -9   0    2.60   16.20
  -4  -9   0   25.50   10.20
   4  10   0   11.90    9.90
  -4 -10   0   18.60   21.40
   5  -7   0   13.60   19.70
   5  -7   0  -32.60   33.20
  -5   7   0   15.10   11.50
   5  -6   0  -40.30   26.20
   5  -6   0  -27.90   12.80
  -5   6   0   -7.30    7.10
   5  -5   0  -14.00   10.50
   5  -5   0   12.70   28.40
  -5   5   0   34.20   11.90
   5  -4   0   29.90   31.70
   5  -4   0   41.00   19.30
  -5   4   0   94.39   17.90
   5  -3   0  147.29   19.80
   5  -3   0  151.98   59.69
  -5   3   0  150.98   18.80
   5  -2   0  641.14   52.49
   5  -2   0  547.65   39.10
  -5   2   0  478.75   39.30
   5  -1   0  420.16   43.60
   5  -1   0  503.55   34.10
  -5   1   0  494.65   35.90
   5   0   0  182.68   15.60
   5   0   0  187.18   21.80
   5   0   0  193.48   30.40
  -5   0   0  163.08   16.70
  -5   0   0  184.68   23.10
   5   1   0 1617.34  104.09
   5   1   0 1556.54   85.19
   5   1   0 1455.05  100.19
  -5  -1   0 1556.24  100.49
  -5  -1   0 1577.44   88.19
   5   2   0 1008.90   55.69
   5   2   0  954.60   75.69
   5   2   0  929.31   67.89
  -5  -2   0  968.10   58.39
  -5  -2   0  900.51   73.79
   5   3   0   64.39    8.20
   5   3   0   45.20   14.00
   5   3   0   26.30   13.80
  -5  -3   0   60.69   24.40
  -5  -3   0   57.39   10.40
   5   4   0  118.09   29.60
   5   4   0  104.99   19.90
   5   4   0   98.09   12.10
  -5  -4   0  118.99   15.10
   5   5   0  860.11   57.59
   5   5   0  913.61   68.39
   5   5   0  960.00   91.19
  -5  -5   0  956.90   64.19
   5   6   0   36.40   14.30
   5   6   0   44.90   20.70
  -5  -6   0   22.50   10.80
   5   7   0  598.44   78.09
   5   7   0  655.93   56.59
  -5  -7   0  637.04   55.29
   5   8   0   43.40   15.80
  -5  -8   0   45.50   14.20
   5   9   0  232.98   39.40
   5   9   0  217.38   56.09
  -5  -9   0  318.37   36.10
   5  10   0   43.30   30.70
  -5 -10   0   31.00   13.30
  -5 -10   0   50.29   25.40
   6  -5   0  143.39   29.80
  -6   5   0  161.68   22.20
   6  -4   0  239.28   38.90
  -6   4   0  298.57   30.30
   6  -3   0  343.37   32.70
   6  -3   0  378.56   42.30
  -6   3   0  341.77   32.10
   6  -2   0   13.50    7.20
   6  -2   0   28.80   14.50
  -6   2   0   23.80    8.10
   6  -1   0    6.90    4.60
   6  -1   0    8.30   11.80
  -6   1   0    1.70    3.00
   6   0   0  187.68   16.40
   6   0   0  200.48   27.10
   6   0   0  195.98   23.40
   6   1   0    3.50    3.10
   6   1   0    2.70    8.60
   6   1   0  -11.00    6.20
  -6  -1   0   -4.10    2.60
   6   2   0  107.49   11.10
   6   2   0  126.79   21.20
   6   2   0   98.09   24.90
  -6  -2   0  133.09   14.60
   6   3   0   34.20   15.80
   6   3   0   43.90   11.50
   6   3   0   29.40    6.90
  -6  -3   0   36.10    8.50
   6   4   0   39.50   20.40
   6   4   0   25.60    9.70
   6   4   0   51.89    9.20
  -6  -4   0   44.20   11.30
   6   5   0  111.09   34.10
   6   5   0  160.38   26.00
   6   5   0  132.49   15.30
  -6  -5   0  160.68   19.40
   6   6   0   85.59   32.20
   6   6   0  119.19   22.80
  -6  -6   0  136.19   23.50
   6   7   0   52.79   27.60
   6   7   0   12.30    9.00
  -6  -7   0   37.40   11.40
   6   8   0  340.17   36.70
   6   8   0  252.17   59.79
  -6  -8   0  334.27   37.30
   6   9   0   61.59   35.80
   6   9   0   87.39   21.10
  -6  -9   0   83.89   19.80
   6  10   0   -5.60   19.60
   6  10   0  -11.70   10.50
  -6 -10   0   14.20   10.40
  -6 -10   0   18.40   13.90
  -7   5   0  -13.70    7.50
   7  -4   0  -15.80   17.30
  -7   4   0    0.30    6.20
  -7   3   0   55.79   13.50
   7  -2   0   33.50   15.00
   7  -2   0   16.60    9.10
  -7   2   0   20.90    7.10
   7  -1   0  507.35   35.40
   7  -1   0  541.25   47.00
  -7   1   0  476.65   38.60
  -7   0   0    7.70    4.40
   7   1   0   42.90   17.40
  -7  -1   0   63.39   12.10
   7   2   0  518.75   32.00
   7   2   0  509.95   53.59
  -7  -2   0  504.65   37.40
   7   3   0 1348.37  107.79
   7   3   0 1340.67   80.89
   7   3   0 1329.37   73.99
  -7  -3   0 1318.67   80.09
   7   4   0   20.00    5.80
   7   4   0   16.40    7.70
   7   4   0   13.60   10.70
  -7  -4   0    8.00    4.50
   7   5   0   47.90    9.50
   7   5   0   45.90   20.10
   7   5   0   61.49   14.60
  -7  -5   0   43.30   11.70
   7   6   0  184.48   24.20
   7   6   0  156.58   42.70
  -7  -6   0  264.57   27.50
   7   7   0   70.39   18.60
   7   7   0   81.39   33.30
  -7  -7   0  112.99   22.40
   7   8   0   15.30   20.10
   7   8   0   44.30   14.60
  -7  -8   0   25.10   12.20
   7   9   0   17.50   11.60
   7   9   0   39.30   23.50
  -7  -9   0   45.70   19.10
   7  10   0   -4.20   10.30
   7  10   0    3.10   20.30
  -7 -10   0    9.70   11.00
  -8   3   0  226.78   26.70
  -8   2   0  194.08   22.20
  -8   1   0   -1.00    4.70
  -8   0   0   64.09   13.10
   8   1   0   68.99   20.50
  -8  -1   0   86.29   14.80
   8   2   0   70.39   23.60
  -8  -2   0   43.50   10.70
   8   3   0   10.00   12.00
  -8  -3   0    1.60    5.20
   8   4   0  -16.70   11.60
   8   4   0    9.50    6.20
  -8  -4   0   14.30    6.50
   8   5   0   67.19   12.90
   8   5   0   75.59   25.50
   8   5   0   66.09   10.80
  -8  -5   0   61.09   14.00
   8   6   0   23.00   18.60
   8   6   0   12.50    8.90
   8   6   0   23.00    9.80
  -8  -6   0   30.20   15.50
   8   7   0   -7.10   17.10
   8   7   0   24.40   10.70
  -8  -7   0   24.50   10.00
   8   8   0  291.77   31.10
   8   8   0  292.87   66.69
  -8  -8   0  272.87   34.70
   8   9   0   82.09   19.90
   8   9   0    1.80   27.70
  -9   2   0  232.68   26.10
  -9   1   0   17.70    7.40
  -9   0   0  332.77   29.80
  -9  -1   0   30.90    9.60
   9   2   0   15.30   17.10
  -9  -2   0    5.70    6.80
   9   3   0  459.65   58.39
  -9  -3   0  467.65   37.30
   9   4   0  159.18   41.40
  -9  -4   0  203.78   22.00
   9   5   0   29.50   18.40
  -9  -5   0    8.20    7.80
   9   6   0   18.80   21.50
  -9  -6   0   38.40   10.90
   9   7   0  413.76   34.20
   9   7   0  388.26   60.79
  -9  -7   0  492.55   42.60
   9   8   0   23.20   14.40
   9   8   0   38.80   46.50
  -9  -8   0   32.60   12.30
 -10   0   0   54.09   13.00
 -10  -1   0   53.99   13.00
 -10  -2   0   35.60   10.80
  10   3   0   15.00   26.30
 -10  -3   0   32.90   10.60
  10   4   0   41.20   26.40
 -10  -4   0   15.30    9.30
  10   5   0   25.50   25.70
 -10  -5   0   31.40    9.70
  10   6   0   37.40   25.00
 -10  -6   1   15.60   10.00
  10   6  -1    8.50   17.90
 -10  -5   1   22.40    7.00
  10   5  -1    7.80   23.50
 -10  -4   1   50.79   13.40
  10   4  -1   80.89   32.70
  10   3  -1   23.00   32.00
 -10  -2   1   82.09   14.70
 -10  -1   1   20.70    8.20
 -10   0   1   -3.60    4.60
  -9  -8   1   14.40    9.40
  -9  -7   1  274.77   31.50
   9   7  -1  303.57   66.89
  -9  -6   1   46.60   13.60
   9   6  -1   59.19   30.10
  -9  -5   1   93.19   16.40
   9   5  -1   91.49   33.50
  -9  -4   1    5.00    7.90
   9   4  -1    0.50   18.50
  -9  -3   1  368.46   31.20
   9   3  -1  328.87   48.50
  -9  -2   1   74.59   13.90
   9   2  -1   22.80   25.40
  -9  -1   1  219.38   23.00
  -9   1   1    6.20    6.40
  -9   2   1   57.69   13.70
  -8  -9   1   32.80   12.40
   8   9  -1   -6.60   15.20
   8   9  -1    5.70   10.70
  -8  -8   1   14.40   11.30
   8   8  -1  -22.60   13.70
   8   8  -1   15.60    9.90
  -8  -7   1   10.10    7.70
   8   7  -1    4.00   17.50
   8   7  -1   20.70    7.40
  -8  -6   1   10.90    7.10
   8   6  -1    6.50    5.30
   8   6  -1   17.30   17.60
  -8  -5   1  112.39   19.10
   8   5  -1   69.89   31.20
  -8  -4   1  210.28   21.20
   8   4  -1  175.58   42.10
  -8  -3   1    5.30    5.30
   8   3  -1   -3.90   10.90
  -8  -2   1  102.19   16.00
   8   2  -1   42.40   20.90
  -8  -1   1  489.75   35.90
   8   1  -1  393.86   49.20
  -8   0   1   84.39   15.30
  -8   1   1    9.50    5.70
  -8   2   1   32.10   10.20
  -8   3   1   36.90   11.70
  -7  -9   1    7.70   11.20
   7   9  -1    6.30   23.50
   7   9  -1   30.90   11.60
  -7  -8   1  312.67   36.40
   7   8  -1  279.97   64.09
   7   8  -1  370.46   33.60
   7   7  -1  140.39   19.50
   7   7  -1  149.29   45.50
  -7  -6   1 1197.58   78.99
   7   6  -1 1217.08   74.09
   7   6  -1 1117.69   68.09
   7   6  -1 1139.29  111.69
  -7  -5   1    6.70    5.10
   7   5  -1   -1.30    4.80
   7   5  -1    0.80    4.10
   7   5  -1  -22.90   10.70
  -7  -4   1  207.98   20.70
   7   4  -1  146.49   38.60
  -7  -3   1  444.16   33.80
   7   3  -1  470.35   55.19
  -7  -2   1  583.14   42.50
   7   2  -1  510.85   58.49
  -7  -1   1  285.37   24.40
   7   1  -1  264.37   38.60
  -7   0   1  150.08   17.00
   7   0  -1  130.89   26.70
  -7   1   1   70.89   13.60
  -7   2   1   17.10    7.90
  -7   4   1   82.29   18.60
  -7   5   1   -8.80    7.10
  -6 -10   1    4.30    9.50
  -6 -10   1    0.10   16.50
   6  10  -1   25.90   11.30
   6  10  -1  -12.20   19.40
  -6  -9   1   56.79   18.20
   6   9  -1   96.89   36.90
   6   9  -1   54.79   15.20
  -6  -8   1   16.00   10.00
   6   8  -1   19.80   15.80
   6   8  -1   -2.90    8.00
  -6  -7   1   24.10   11.00
   6   7  -1   16.00   15.30
   6   7  -1    5.50    7.90
  -6  -6   1   33.50   10.60
   6   6  -1   30.50    9.70
   6   6  -1   27.10    9.00
   6   6  -1   10.80   15.60
  -6  -5   1   10.70    7.00
   6   5  -1   -3.90    3.50
   6   5  -1    1.30   13.60
   6   5  -1   -1.20    4.40
   6   4  -1  221.78   46.00
   6   4  -1  223.08   20.00
   6   4  -1  213.48   17.10
  -6  -3   1    2.50    3.30
   6   3  -1    5.40    9.80
  -6  -2   1  189.58   30.90
  -6  -2   1  186.88   17.70
   6   2  -1  214.28   33.00
  -6  -1   1  372.06   28.70
  -6  -1   1  385.36   37.40
   6   1  -1  434.36   46.10
  -6   0   1 1384.76   81.69
   6   0  -1 1400.36   96.19
  -6   1   1   32.50    8.70
  -6   2   1  397.86   33.40
   6  -2  -1  404.86   31.40
   6  -2  -1  396.26   37.80
  -6   3   1  379.96   34.70
   6  -3  -1  390.76   40.60
   6  -3  -1  424.96   35.50
   6  -3  -1  366.16  131.39
   6  -4  -1  184.08   73.69
  -6   5   1   11.80    7.10
   6  -5  -1   -0.40   34.20
   6  -5  -1  -10.50   14.20
  -6   6   1   52.89   16.30
   6  -6  -1   41.60   21.60
   6  -6  -1  136.09   58.69
  -5 -10   1   39.90   22.60
  -5 -10   1   29.70   15.30
   5  10  -1   67.39   21.70
   5  10  -1   50.89   28.70
  -5  -9   1   37.60   16.00
   5   9  -1   -3.70   21.20
   5   9  -1   26.90   12.20
  -5  -8   1  154.78   28.80
   5   8  -1   98.39   20.10
   5   8  -1   60.29   30.10
  -5  -7   1   10.30    6.90
   5   7  -1   -1.00   13.60
   5   7  -1   -1.30    7.20
  -5  -6   1 1027.40   71.69
   5   6  -1  895.51   65.59
   5   6  -1  906.51   95.59
  -5  -5   1  253.07   25.50
   5   5  -1  185.78   18.80
   5   5  -1  216.58   23.30
   5   5  -1  173.58   40.90
  -5  -4   1   15.70    5.00
   5   4  -1   11.80    6.10
   5   4  -1    9.50    9.60
   5   4  -1    6.20    3.60
  -5  -3   1   28.70    7.10
  -5  -3   1  -18.40    9.50
   5   3  -1   14.60   11.30
   5   3  -1    6.90    3.40
   5   3  -1   24.40    7.00
  -5  -2   1 2339.57  129.89
  -5  -2   1 2430.26  149.99
   5   2  -1 2502.95  158.18
  -5  -1   1   12.50    4.50
  -5  -1   1    9.20    7.50
   5   1  -1    8.20    8.80
  -5   0   1   51.69   13.50
  -5   0   1   66.59   11.20
   5   0  -1   60.29   18.10
  -5   1   1   40.80   10.70
  -5   1   1   29.70    7.50
   5  -1  -1   40.00   26.60
   5  -1  -1   26.80    6.90
   5  -1  -1   35.90   11.80
  -5   2   1   -2.30    3.70
   5  -2  -1  -24.80   16.60
   5  -2  -1    0.60    7.40
   5  -2  -1   14.20    6.20
  -5   3   1   57.69   12.90
   5  -3  -1   62.79   18.60
   5  -3  -1  100.89   44.50
   5  -3  -1   47.60   13.90
  -5   4   1   66.99   14.90
   5  -4  -1  115.99   25.80
   5  -4  -1   15.00   32.00
   5  -4  -1   60.09   16.40
  -5   5   1   15.60    8.80
   5  -5  -1  -50.29   28.30
   5  -5  -1   39.20   14.50
  -5   6   1   70.49   17.00
   5  -6  -1   57.79   19.90
   5  -6  -1   71.69   39.40
   5  -7  -1   53.89   50.89
   5  -7  -1   23.10   17.70
  -4 -10   1   -1.60   21.60
   4  10  -1   24.70   26.70
   4  10  -1   60.39   20.50
  -4  -9   1  713.03   75.79
  -4  -9   1  687.13   58.49
   4   9  -1  588.04   57.09
   4   9  -1  515.95   82.09
  -4  -8   1   17.40   10.10
   4   8  -1   35.90   15.60
   4   8  -1   11.10   14.70
  -4  -7   1  107.39   23.50
   4   7  -1  110.09   23.40
   4   7  -1   70.39   28.40
  -4  -6   1  141.59   26.00
   4   6  -1   87.59   28.30
   4   6  -1  127.09   24.00
  -4  -5   1 3514.25  195.18
   4   5  -1 3363.26  222.58
   4   5  -1 3242.38  183.98
   4   5  -1 3511.75  190.78
  -4  -4   1   14.90    6.80
  -4  -4   1    4.90   11.20
   4   4  -1   15.30    6.40
   4   4  -1   18.00    5.50
   4   4  -1   10.50    9.10
  -4  -3   1 2366.76  156.58
  -4  -3   1 2438.36  135.29
   4   3  -1 2399.86  161.98
   4   3  -1 2675.33  132.49
   4   3  -1 2541.15  137.09
  -4  -2   1   82.39   24.10
  -4  -2   1   57.39    9.20
  -4  -2   1   73.19   35.40
   4   2  -1   52.69   16.80
  -4  -1   1  839.62  112.29
  -4  -1   1  901.91   52.59
  -4  -1   1  906.61   63.39
   4   1  -1  987.90   72.19
  -4   0   1  638.64   46.70
  -4   0   1  652.63   99.09
  -4   0   1  696.23   48.00
  -4   0   1  640.74   40.50
   4   0  -1  642.34   53.49
  -4   1   1 2829.42  150.38
  -4   1   1 2797.12  146.39
  -4   1   1 2839.62  152.28
   4  -1  -1 2373.96  223.38
   4  -1  -1 2631.54  152.08
   4  -1  -1 2604.14  143.59
  -4   2   1  546.85   39.80
  -4   2   1  519.25   38.50
  -4   2   1  553.64   38.50
   4  -2  -1  632.24   47.20
   4  -2  -1  382.56   93.49
   4  -2  -1  559.54   39.20
  -4   3   1  104.99   19.60
  -4   3   1  121.29   16.60
   4  -3  -1  114.89   48.30
   4  -3  -1  131.39   17.20
   4  -3  -1  169.88   27.10
  -4   4   1  761.82   54.79
  -4   4   1  740.03   63.59
   4  -4  -1  546.95   98.49
   4  -4  -1  691.73   58.99
   4  -4  -1  732.03   55.69
  -4   5   1  410.06   39.70
  -4   5   1  404.16   48.70
  -4   5   1  310.17   34.40
   4  -5  -1  301.37   84.39
   4  -5  -1  370.76   42.30
  -4   6   1  420.66   65.29
  -4   6   1  455.55   44.10
  -4   6   1  516.15   47.60
   4  -6  -1  319.87   83.19
   4  -6  -1  503.25   51.69
  -4   7   1    7.40   13.40
  -4   7   1   -9.90    7.40
   4  -7  -1  -28.80   27.50
  -3 -10   1  385.96   65.69
   3  10  -1  341.77   75.89
   3  10  -1  299.97   40.70
  -3  -9   1  103.29   36.30
  -3  -9   1   75.79   20.20
   3   9  -1   75.59   20.90
   3   9  -1   68.19   33.70
  -3  -8   1  252.17   31.80
  -3  -8   1  251.87   45.80
   3   8  -1  152.38   56.59
   3   8  -1  220.28   36.90
  -3  -7   1   69.89   21.00
  -3  -7   1   76.29   23.00
   3   7  -1   52.89   20.80
   3   7  -1   38.20   12.80
  -3  -6   1   47.30   15.40
   3   6  -1   69.29   17.40
   3   6  -1   48.40   23.30
   3   5  -1   35.60   12.00
   3   5  -1   24.10   11.90
   3   5  -1   44.90   19.70
  -3  -4   1  619.64   53.89
  -3  -4   1  667.93   49.99
   3   4  -1  678.13   65.99
   3   4  -1  583.24   43.20
   3   4  -1  697.03   48.10
  -3  -3   1  206.98   26.00
  -3  -3   1  208.08   19.30
   3   3  -1  186.58   18.60
   3   3  -1  186.28   29.00
   3   3  -1  187.48   15.90
  -3  -2   1 1769.42  112.49
  -3  -2   1 1744.63   96.49
   3   2  -1 1758.22  117.39
   3   2  -1 1921.71  100.79
  -3  -1   1  247.18   60.49
  -3  -1   1  285.77   29.00
  -3  -1   1  249.68   28.10
  -3  -1   1  269.47   18.30
   3   1  -1  313.47   31.90
  -3   0   1 1498.35   87.89
  -3   0   1 1520.55   91.09
   3   0  -1 1458.85  144.19
   3   0  -1 1588.74   86.59
   3   0  -1 1528.85   79.49
   3   0  -1 1435.36   95.29
  -3   1   1  109.69   14.00
  -3   1   1  104.29   11.50
  -3   1   1   72.49   36.70
  -3   1   1  103.89   15.20
   3  -1  -1  121.49   11.70
   3  -1  -1   98.79   13.90
   3  -1  -1   88.19   32.80
  -3   2   1  278.37   28.00
  -3   2   1  260.67   21.30
  -3   2   1  220.88   21.60
  -3   2   1  239.28   60.69
   3  -2  -1  268.77   26.50
   3  -2  -1  209.98   60.69
   3  -2  -1  232.98   22.10
  -3   3   1   25.40    8.30
  -3   3   1   41.10   15.80
   3  -3  -1   29.80    9.20
   3  -3  -1   36.70   12.70
   3  -3  -1   30.80   25.60
  -3   4   1   23.80    9.10
   3  -4  -1   -3.00   19.20
   3  -4  -1    2.80   18.70
   3  -4  -1   22.30    9.40
  -3   5   1  335.37   33.30
   3  -5  -1  273.77   36.20
   3  -5  -1  236.58   68.89
  -3   6   1  340.97   46.20
   3  -6  -1  269.67   83.39
   3  -6  -1  321.07   40.80
  -3   7   1  100.49   21.90
  -3   7   1   83.59   27.10
   3  -7  -1   74.59   20.20
   3  -7  -1   90.89   48.20
  -3   8   1    5.30   11.90
  -3   8   1  -21.20   17.40
   3  -8  -1   17.60   19.00
   3  -8  -1  -17.30   35.00
  -2 -10   1   72.89   35.10
  -2 -10   1   76.59   20.60
   2  10  -1   52.39   34.00
   2  10  -1   59.09   27.30
  -2  -9   1   24.90   31.90
  -2  -9   1   59.69   16.70
   2   9  -1   15.00   12.80
   2   9  -1   30.00   21.20
  -2  -8   1   15.60   12.00
   2   8  -1  -13.30   12.00
   2   8  -1   51.79   16.90
  -2  -7   1   59.39   15.70
  -2  -7   1   39.70   21.90
   2   7  -1   42.30   13.60
   2   7  -1   21.50   16.40
  -2  -6   1  454.95   44.50
  -2  -6   1  546.65   58.89
   2   6  -1  428.56   42.10
   2   6  -1  443.16   57.79
  -2  -5   1 3314.07  203.28
   2   5  -1 3268.47  186.78
   2   5  -1 3303.37  205.58
  -2  -4   1   -3.50    4.50
  -2  -4   1   -1.00    4.30
   2   4  -1   -6.10    2.90
   2   4  -1   -8.00    4.30
   2   4  -1   -4.00    3.90
  -2  -3   1  652.73   49.20
  -2  -3   1  711.93   49.90
   2   3  -1  699.63   61.09
   2   3  -1  696.33   46.10
   2   3  -1  685.63   46.20
  -2  -2   1   14.20    5.70
  -2  -2   1    6.60    3.40
   2   2  -1    8.70    2.80
   2   2  -1   14.20    7.50
  -2  -1   1 4190.78  223.48
  -2  -1   1 4048.99  215.78
  -2  -1   1 4775.12  277.17
  -2  -1   1 4259.17  230.68
   2   1  -1 4142.19  234.68
  -2   0   1   34.70   17.10
  -2   0   1   48.70   10.60
  -2   0   1   60.99    5.70
  -2   0   1   75.29    9.20
   2   0  -1   58.79   24.80
   2   0  -1   50.39   12.30
  -2   1   1 8298.67  521.45
  -2   1   1 8454.15  472.85
  -2   1   1 9542.35  480.95
  -2   1   1 9999.00  471.45
   2  -1  -1 9744.92  480.95
   2  -1  -1 9272.17  471.25
  -2   2   1   55.09   10.00
  -2   2   1   71.79   24.60
  -2   2   1   59.59   11.50
   2  -2  -1   69.29   13.60
   2  -2  -1   62.29   11.90
   2  -2  -1   42.80   24.50
  -2   3   1  585.04   47.30
  -2   3   1  708.03   46.10
  -2   3   1  804.72   82.29
   2  -3  -1  702.03   50.19
   2  -3  -1  679.83   52.29
  -2   4   1    9.40   11.70
   2  -4  -1    3.20   18.30
   2  -4  -1   13.20    8.00
  -2   5   1 1844.72  114.29
   2  -5  -1 1740.53  112.89
   2  -6  -1   48.10   27.80
  -2   7   1    4.30    9.80
   2  -7  -1   34.90   25.90
  -2   8   1   59.99   27.50
  -2   8   1   52.59   16.70
   2  -8  -1    0.10   34.00
   2  -8  -1   66.79   21.10
  -2   9   1   -4.50   14.60
  -2   9   1   56.99   41.60
   2  -9  -1   53.59   16.40
   2  -9  -1   -3.00   47.10
  -1 -10   1  187.48   33.20
   1  10  -1  196.38   59.09
   1  10  -1  152.68   31.80
  -1  -9   1   -4.30    8.40
  -1  -9   1   30.00   30.30
   1   9  -1   -2.80    7.70
   1   9  -1   12.80   18.10
  -1  -8   1    0.30    6.80
  -1  -8   1   -0.90   22.80
   1   8  -1    4.20    9.40
  -1  -7   1   -9.90   17.10
  -1  -7   1    0.20    5.80
   1   7  -1   12.50   10.50
  -1  -6   1  246.08   56.69
  -1  -6   1  203.08   26.40
   1   6  -1  176.78   41.90
   1   6  -1  196.78   26.20
  -1  -5   1   -5.70    9.00
  -1  -5   1    6.50    5.30
   1   5  -1    0.70    3.80
   1   5  -1    0.60    5.90
  -1  -4   1  404.46   35.60
  -1  -4   1  461.15   48.40
  -1  -4   1  371.46   35.40
   1   4  -1  383.46   37.30
   1   4  -1  313.87   31.10
   1   4  -1  370.16   44.40
  -1  -3   1  129.79   16.50
  -1  -3   1  142.09   17.80
   1   3  -1  113.69   23.80
   1   3  -1  137.29   15.50
   1   3  -1  130.69   21.70
  -1  -2   1 1626.24   97.39
  -1  -2   1 1808.32   95.59
   1   2  -1 1598.34   97.59
   1   2  -1 1728.53  106.99
   1   2  -1 1808.12   94.39
  -1  -1   1    0.00    1.00
  -1  -1   1   -0.10    4.10
  -1  -1   1   -1.70    0.80
   1   1  -1    0.00    2.10
   1   1  -1    1.90    1.10
   1   1  -1    0.90    1.00
  -1   0   1  299.07   24.00
  -1   0   1  221.58   30.90
   1   0  -1  265.27   23.50
   1   0  -1  198.78   29.60
  -1   1   1   27.10    6.40
  -1   1   1   24.80   13.20
   1  -1  -1   28.70    6.40
   1  -1  -1   29.80    5.90
   1  -1  -1   16.20    9.40
  -1   2   1 5113.09  279.27
  -1   2   1 5244.27  274.17
   1  -2  -1 5607.14  280.97
   1  -2  -1 5350.36  275.67
  -1   3   1  288.07   40.40
  -1   3   1  259.57   25.90
  -1   3   1  247.48   22.00
   1  -3  -1  230.58   25.10
   1  -3  -1  201.18   52.29
   1  -3  -1  257.97   24.40
  -1   4   1  220.18   36.70
  -1   4   1  170.58   22.90
   1  -4  -1  181.48   22.70
   1  -4  -1  158.28   50.99
   1  -4  -1  185.48   28.60
  -1   5   1  360.06   49.20
  -1   5   1  299.47   32.80
   1  -5  -1  178.18   55.69
   1  -5  -1  281.17   31.40
  -1   6   1  213.58   34.50
   1  -6  -1  164.08   28.50
   1  -6  -1   74.29   40.80
  -1   7   1  212.58   40.90
   1  -7  -1  241.48   29.90
   1  -7  -1  283.97   77.59
  -1   8   1  134.19   31.90
  -1   8   1  119.19   38.40
   1  -8  -1  119.29   25.40
   1  -8  -1   99.19   54.79
  -1   9   1  219.68   57.89
   1  -9  -1  209.78   28.90
   0 -10   1  -13.60    9.00
   0  10  -1   48.60   35.80
   0  10  -1   -6.80   13.60
   0  -9   1   65.49   18.50
   0  -9   1   95.89   41.70
   0   9  -1   68.89   20.70
   0   9  -1   72.09   35.30
   0  -8   1   66.19   34.30
   0  -8   1   17.60    9.10
   0   8  -1   15.40    8.80
   0   8  -1   18.00   20.50
   0  -7   1  957.00   77.59
   0   7  -1 1108.09   80.79
   0   7  -1 1039.80   98.59
   0  -6   1  273.17   54.49
   0  -6   1  375.76   38.60
   0   6  -1  332.37   36.60
   0   6  -1  421.96   52.29
   0  -5   1    9.20   15.50
   0  -5   1   -5.70    4.70
   0   5  -1    2.00    7.70
   0   5  -1    4.80    3.70
   0  -4   1  185.08   36.20
   0  -4   1  185.38   22.70
   0  -4   1  181.48   22.90
   0   4  -1  212.68   23.40
   0   4  -1  224.28   31.10
   0   4  -1  203.58   22.40
   0  -3   1 6121.69  331.17
   0  -3   1 6060.69  332.07
   0   3  -1 6711.93  332.47
   0   3  -1 6089.79  343.87
   0   3  -1 6669.83  331.47
   0  -2   1  169.28   22.80
   0  -2   1  180.58   16.40
   0  -2   1  180.38   16.80
   0   2  -1  192.38   17.00
   0   2  -1  178.88   16.10
   0   2  -1  156.18   20.20
   0   2  -1  211.08   22.50
   0  -1   1  197.98   14.70
   0  -1   1  233.28   15.60
   0  -1   1  211.78   18.90
   0   1  -1  214.68   19.90
   0   1  -1  223.98   15.30
   0   1  -1  229.78   15.20
   0   1   1  216.08   16.60
   0   1   1  223.78   26.30
   0   1   1  177.78   19.70
   0  -1  -1  238.28   28.40
   0  -1  -1  220.28   21.50
   0  -1  -1  195.18   16.10
   0   2   1   66.09   13.70
   0   2   1  107.19   25.30
   0   2   1   93.89   14.50
   0  -2  -1   97.79   12.50
   0  -2  -1   80.39   23.70
   0  -2  -1   84.79   15.50
   0   3   1   80.79   23.30
   0   3   1   59.59   14.60
   0   3   1   94.99   17.10
   0  -3  -1   56.89   13.30
   0  -3  -1   59.49   27.10
   0  -3  -1   70.99   16.90
   0   4   1  173.08   21.60
   0   4   1  198.78   25.40
   0  -4  -1  183.68   50.69
   0  -4  -1  172.88   24.10
   0  -4  -1  181.88   21.90
   0   5   1  866.31   67.19
   0  -5  -1  791.32  104.39
   0  -5  -1  815.82   62.49
   0   6   1   23.20   11.10
   0  -6  -1  -12.90   17.50
   0  -6  -1   23.00    9.10
   0   7   1    8.10    9.00
   0  -7  -1   -3.00   15.10
   0  -7  -1    8.40    6.50
   0   8   1    4.90    9.40
   0  -8  -1   11.50    8.60
   0  -8  -1  -16.30   23.10
   0   9   1  189.78   52.59
   0   9   1  111.89   30.00
   0  -9  -1   90.09   47.90
   0  -9  -1  124.59   25.80
   0  10   1  -13.50   13.00
   0  10   1  -42.20   23.70
   0 -10  -1   11.40   10.20
   0 -10  -1  -44.00   43.80
   1  -9   1   14.80    9.90
   1  -9   1   -8.20   29.90
  -1   9  -1   41.10   38.70
   1  -8   1  246.08   32.50
   1  -8   1  144.59   51.69
  -1   8  -1  285.77   57.39
  -1   8  -1  235.28   32.40
   1  -7   1   -2.50    6.50
   1  -7   1   17.30   23.60
  -1   7  -1    0.70    6.80
  -1   7  -1   16.90   15.30
   1  -6   1  153.68   27.50
   1  -6   1   87.29   32.70
  -1   6  -1  139.99   23.80
   1  -5   1   23.60   12.20
   1  -5   1   45.20   24.90
  -1   5  -1   37.00   16.00
  -1   5  -1   33.90   19.40
  -1   5  -1   17.80    8.70
   1  -4   1  159.78   21.30
   1  -4   1  136.09   39.80
   1  -4   1  196.88   22.30
  -1   4  -1  225.08   33.50
  -1   4  -1  179.18   26.60
  -1   4  -1  197.98   22.10
   1  -3   1  255.67   24.80
   1  -3   1  293.77   25.90
  -1   3  -1  285.67   37.80
  -1   3  -1  266.07   29.50
  -1   3  -1  271.77   25.00
   1  -2   1 2052.89  113.69
   1  -2   1 2167.58  113.99
  -1   2  -1 2027.50  112.29
  -1   2  -1 2009.30  116.79
  -1   2  -1 2171.88  114.09
  -1   2  -1 1912.11  135.39
   1  -1   1  169.68   29.30
   1  -1   1  145.19   14.90
   1  -1   1  156.68   12.80
  -1   1  -1   92.99   26.50
  -1   1  -1  146.99   13.30
  -1   1  -1  152.58   12.80
  -1   1  -1  156.38   12.90
   1   0   1  156.58   11.60
   1   0   1  190.08   15.70
  -1   0  -1  152.88   11.50
  -1   0  -1  183.88   15.40
   1   1   1    1.80    7.30
  -1  -1  -1    8.20   10.30
  -1  -1  -1    1.10    1.20
   1   2   1 6303.17  312.07
   1   2   1 5691.93  322.57
  -1  -2  -1 5935.11  323.67
  -1  -2  -1 5975.80  311.57
   1   3   1   12.90    6.10
   1   3   1    5.20    5.80
  -1  -3  -1    3.80    3.60
  -1  -3  -1   19.70    8.80
   1   4   1  515.95   47.10
   1   4   1  568.74   50.89
  -1  -4  -1  602.34   47.20
  -1  -4  -1  564.74   61.49
  -1  -4  -1  556.44   51.29
   1   5   1   27.20   13.30
  -1  -5  -1   12.90    9.60
  -1  -5  -1   24.80   14.60
   1   6   1 3507.05  208.48
  -1  -6  -1 3310.27  197.98
  -1  -6  -1 3515.35  249.48
   1   7   1   30.80   13.80
  -1  -7  -1   15.80    9.60
  -1  -7  -1   13.50   16.90
   1   8   1  686.53   64.89
  -1  -8  -1  595.54   53.09
  -1  -8  -1  568.44   92.99
   1   9   1   12.20   14.00
   1   9   1   18.10   19.90
  -1  -9  -1    8.70   31.60
  -1  -9  -1   13.60    6.70
   1  10   1   51.79   20.60
   1  10   1   50.49   36.40
  -1 -10  -1  148.49   28.80
   2  -9   1   53.79   37.30
  -2   9  -1   41.40   16.40
  -2   9  -1   50.39   35.40
   2  -8   1  228.28   46.10
  -2   8  -1  261.87   41.30
  -2   8  -1  266.87   52.79
  -2   7  -1  397.96   52.29
  -2   7  -1  341.57   39.30
   2  -6   1    5.60   23.80
  -2   6  -1   -3.30    8.20
  -2   6  -1   22.10    9.80
  -2   5  -1  307.27   32.30
  -2   5  -1  339.47   39.60
  -2   5  -1  336.17   48.60
   2  -4   1   32.50   13.80
   2  -4   1   10.10   18.70
  -2   4  -1   42.30   18.50
  -2   4  -1   35.20   12.10
   2  -3   1 3951.00  219.78
   2  -3   1 3554.54  209.38
  -2   3  -1 3944.31  213.38
  -2   3  -1 4125.79  256.57
  -2   3  -1 4118.39  209.08
  -2   3  -1 3698.33  210.08
   2  -2   1   29.80    7.40
   2  -2   1   29.90   10.70
   2  -2   1   11.90   16.70
  -2   2  -1   19.10   17.50
  -2   2  -1   29.20    6.80
  -2   2  -1   22.50    6.50
  -2   2  -1   24.80    6.90
   2  -1   1  121.79   18.90
   2  -1   1  113.09   36.30
   2  -1   1  105.29   11.00
  -2   1  -1   96.09   10.80
  -2   1  -1   89.79   28.80
  -2   1  -1   97.79   13.40
   2   0   1  196.18   15.20
   2   0   1  217.18   21.40
  -2   0  -1  203.68   20.10
  -2   0  -1  193.08   15.10
   2   1   1 4218.88  222.38
   2   1   1 4334.77  239.08
  -2  -1  -1 4350.26  238.08
  -2  -1  -1 4426.26  222.98
   2   2   1   59.69   17.40
   2   2   1   59.99    9.70
  -2  -2  -1   45.40   17.00
  -2  -2  -1   60.49    8.20
   2   3   1  694.93   48.10
   2   3   1  736.33   61.29
  -2  -3  -1  690.23   49.10
  -2  -3  -1  763.92   64.59
   2   4   1   25.70    9.50
   2   4   1   31.40   12.00
  -2  -4  -1   20.50    8.30
  -2  -4  -1  -11.70    9.50
   2   5   1   12.90    8.00
  -2  -5  -1    3.10    5.80
   2   6   1   12.70   12.10
  -2  -6  -1   33.00   18.00
  -2  -6  -1   26.90   11.50
   2   7   1  277.07   36.10
  -2  -7  -1  247.18   55.39
  -2  -7  -1  204.88   28.60
   2   8   1   10.50   11.40
  -2  -8  -1    0.00    7.70
  -2  -8  -1  -19.30   15.70
   2   9   1  179.78   51.39
   2   9   1  149.88   33.20
  -2  -9  -1  107.29   41.20
  -2  -9  -1  192.28   25.80
   2  10   1   61.69   40.50
   2  10   1   52.69   31.20
  -2 -10  -1   38.50   41.00
   3  -8   1  -27.70   29.60
   3  -8   1    0.60   12.40
  -3   8  -1   -7.80   10.20
  -3   8  -1   -5.20   20.20
   3  -7   1   40.40   33.40
   3  -7   1  -25.70   10.00
  -3   7  -1   11.60   15.40
  -3   7  -1    3.70    6.60
   3  -6   1  589.54   61.19
   3  -6   1  425.56   97.89
  -3   6  -1  613.94   57.69
  -3   6  -1  547.25   48.80
   3  -5   1  -14.10   20.20
   3  -5   1   11.10    9.20
  -3   5  -1    8.40    7.60
  -3   5  -1    4.90    5.30
   3  -4   1  -11.20    7.00
   3  -4   1   -2.10   14.50
  -3   4  -1   10.50    7.30
  -3   4  -1   10.30    5.50
   3  -3   1  391.26   39.50
   3  -3   1  390.86   32.50
   3  -3   1  326.57   77.39
  -3   3  -1  395.96   63.99
  -3   3  -1  366.66   29.40
   3  -2   1  696.23   47.20
   3  -2   1  687.83   96.89
   3  -2   1  748.83   56.19
  -3   2  -1  733.63   47.60
  -3   2  -1  686.53   47.60
   3  -1   1  200.78   17.70
   3  -1   1  200.38   23.60
  -3   1  -1  185.08   54.89
  -3   1  -1  190.38   21.40
  -3   1  -1  175.18   17.20
   3   0   1  817.42   50.79
   3   0   1  881.31   51.99
   3   0   1  874.61   61.89
  -3   0  -1  870.61   59.79
  -3   0  -1  977.50  110.59
  -3   0  -1  862.01   51.59
   3   1   1  480.85   30.40
   3   1   1  466.25   44.20
  -3  -1  -1  439.26   30.30
  -3  -1  -1  488.85   42.20
   3   2   1  136.39   28.80
   3   2   1  145.69   13.70
  -3  -2  -1  152.18   14.30
  -3  -2  -1  168.58   35.20
   3   3   1  246.38   21.30
   3   3   1  288.27   35.90
  -3  -3  -1  247.28   22.40
  -3  -3  -1  257.77   45.80
   3   4   1  250.77   25.50
   3   4   1  311.47   37.40
  -3  -4  -1  347.07   44.60
  -3  -4  -1  305.27   28.90
   3   5   1  114.49   27.20
  -3  -5  -1  107.19   21.50
   3   6   1  868.81   73.59
  -3  -6  -1  821.02   64.49
   3   7   1   18.60   10.30
  -3  -7  -1    4.90    6.30
  -3  -7  -1   20.00   12.90
  -3  -8  -1   12.20   14.90
   3   9   1  119.39   43.00
   3   9   1  100.69   29.20
  -3  -9  -1  136.79   26.10
  -3  -9  -1  139.79   41.80
   3  10   1  112.69   26.50
   3  10   1   76.39   41.00
  -3 -10  -1  152.28   44.90
   4  -7   1   52.89   54.09
   4  -7   1   26.50   17.80
  -4   7  -1   60.39   17.60
   4  -6   1  110.69   52.19
  -4   6  -1  212.28   26.70
  -4   6  -1  202.78   26.80
   4  -5   1   16.50   11.50
   4  -5   1    7.20   25.30
  -4   5  -1   15.10    7.10
   4  -4   1  274.97   79.59
   4  -4   1  311.67   40.70
  -4   4  -1  361.26   33.20
   4  -3   1  209.98   34.10
   4  -3   1  183.38   67.49
  -4   3  -1  237.48   23.90
   4  -2   1  600.54   50.19
   4  -2   1  517.15   38.30
  -4   2  -1  487.15   38.30
   4  -1   1   79.79   13.30
   4  -1   1   86.99   20.30
  -4   1  -1   90.09   11.80
  -4   1  -1   61.09   30.50
  -4   1  -1   86.19   18.20
   4   0   1   33.40    7.90
   4   0   1   44.20    9.20
   4   0   1   46.10   14.30
  -4   0  -1   35.70   23.50
  -4   0  -1   36.90    8.10
   4   1   1 1177.08   67.99
   4   1   1 1158.38   77.19
   4   1   1 1230.78   87.39
  -4  -1  -1 1183.78   68.79
  -4  -1  -1 1216.58   82.89
   4   2   1   64.69    8.90
   4   2   1   82.59   24.20
  -4  -2  -1   68.89   11.20
  -4  -2  -1   76.79   20.80
   4   3   1 1188.68   72.29
   4   3   1 1281.47   94.09
  -4  -3  -1 1215.28  100.09
  -4  -3  -1 1300.27   74.59
   4   4   1  304.17   37.00
   4   4   1  292.97   24.90
  -4  -4  -1  255.17   25.70
   4   5   1   11.40    7.50
  -4  -5  -1    4.90    5.20
   4   6   1    7.70    8.30
  -4  -6  -1    3.90    6.10
  -4  -7  -1   93.19   20.10
  -4  -8  -1    0.00    7.60
   4   9   1  387.96   49.30
   4   9   1  382.06   76.29
  -4  -9  -1  508.35   65.39
  -4  -9  -1  411.96   44.20
   4  10   1   38.30   16.90
   4  10   1   20.00   27.10
  -4 -10  -1   55.89   37.90
   5  -7   1   84.79   30.10
  -5   7  -1   89.09   19.20
   5  -6   1  182.38   39.90
  -5   6  -1  159.58   26.60
   5  -5   1  286.87   45.50
  -5   5  -1  267.57   29.40
   5  -4   1   35.40   14.70
  -5   4  -1   16.00    7.80
   5  -3   1    6.90   13.10
  -5   3  -1   55.39   13.50
   5  -2   1 2644.94  156.88
   5  -2   1 2448.16  138.09
  -5   2  -1 2362.46  139.39
   5  -1   1  166.18   30.90
   5  -1   1  196.08   19.50
   5   0   1  676.63   62.09
   5   0   1  767.52   50.89
   5   0   1  767.02   47.90
  -5   0  -1  784.82   49.80
   5   1   1    3.00    4.00
   5   1   1   27.30   14.00
  -5  -1  -1    6.40    3.50
  -5  -1  -1   -2.50    6.60
   5   2   1 2370.66  162.38
   5   2   1 2760.02  161.58
   5   2   1 2666.33  140.89
  -5  -2  -1 2653.73  142.99
  -5  -2  -1 2576.44  162.88
   5   3   1  101.39   25.80
   5   3   1   88.19   11.80
   5   3   1   99.09   24.40
  -5  -3  -1  120.49   14.00
   5   4   1 2593.04  137.09
   5   4   1 2427.56  156.18
  -5  -4  -1 2392.76  139.49
   5   5   1   53.09   17.10
  -5  -5  -1   43.20   11.20
   5   6   1  283.87   38.10
  -5  -6  -1  353.26   35.30
   5   7   1  171.18   32.50
  -5  -7  -1  175.98   29.90
   5   8   1  695.63   90.39
  -5  -8  -1  758.72   61.69
   5   9   1   76.79   23.90
   5   9   1   31.00   28.90
  -5  -9  -1  133.19   26.50
   5  10   1  -21.00   11.60
   5  10   1   48.80   26.00
  -5 -10  -1  -14.80    8.80
  -5 -10  -1    1.60   15.30
   6  -6   1   48.40   21.50
  -6   6  -1   11.00   11.20
   6  -5   1   11.90   17.20
  -6   5  -1    4.50    5.60
   6  -4   1   93.19   25.00
  -6   4  -1   94.29   17.90
   6  -3   1   28.80   14.40
  -6   3  -1   34.20   10.30
   6  -2   1  133.99   18.50
   6  -2   1  104.49   25.60
  -6   2  -1  144.69   17.90
   6  -1   1  231.68   38.30
   6  -1   1  157.88   17.50
  -6   1  -1  164.18   18.60
   6   0   1   52.39   19.50
   6   0   1   16.90    6.80
   6   0   1   17.00    6.40
  -6   0  -1   27.00    8.20
   6   1   1  255.77   21.90
   6   1   1  260.17   30.70
   6   1   1  279.27   36.70
  -6  -1  -1  281.17   24.50
   6   2   1  111.99   12.70
   6   2   1  106.49   23.50
   6   2   1   91.19   24.90
   6   3   1  390.06   31.20
   6   3   1  408.26   43.10
   6   3   1  344.27   43.80
  -6  -3  -1  371.16   30.40
   6   4   1  168.88   17.50
   6   4   1  172.48   35.90
   6   4   1  214.38   34.50
  -6  -4  -1  153.58   18.60
   6   5   1  411.16   55.29
   6   5   1  369.36   41.00
  -6  -5  -1  380.96   34.40
   6   6   1   17.10   13.70
   6   6   1    2.80    8.80
  -6  -6  -1   19.70    6.90
   6   7   1  124.59   40.30
   6   7   1  120.39   24.00
  -6  -7  -1  154.38   29.10
   6   8   1   -8.50   10.80
  -6  -8  -1   -5.80    7.10
   6   9   1  109.89   25.10
   6   9   1   63.69   33.60
  -6  -9  -1  104.19   22.40
   6  10   1    3.90   20.60
   6  10   1   29.30   16.90
  -6 -10  -1    5.10   10.00
  -6 -10  -1   30.10   18.40
   7  -5   1  306.67   46.10
  -7   5  -1  263.57   46.80
   7  -4   1   44.50   22.70
  -7   4  -1   47.80   13.60
   7  -3   1  337.77   45.00
  -7   3  -1  310.27   30.70
   7  -2   1  137.99   34.90
   7  -2   1  132.59   22.20
  -7   2  -1  153.38   19.70
   7  -1   1  826.22   70.99
   7  -1   1  805.22   53.59
  -7   1  -1  849.22   57.29
   7   0   1  160.48   16.90
   7   0   1  147.69   31.50
  -7   0  -1  160.58   18.80
   7   1   1  285.67   39.60
   7   1   1  329.57   35.80
   7   1   1  282.77   23.90
  -7  -1  -1  325.07   27.10
   7   2   1  401.06   45.10
   7   2   1  504.85   32.90
   7   2   1  463.95   48.50
  -7  -2  -1  450.15   35.80
   7   3   1  310.27   34.70
   7   3   1  268.57   71.79
  -7  -3  -1  258.17   24.60
   7   4   1  392.46   50.19
   7   4   1  335.77   39.10
   7   4   1  351.66   28.30
  -7  -4  -1  381.26   31.70
   7   5   1  136.89   34.80
   7   5   1  145.69   28.10
  -7  -5  -1  164.88   20.00
   7   6   1   49.20   23.60
   7   6   1   25.60   13.70
  -7  -6  -1   44.70   14.30
   7   7   1   60.49   17.10
   7   7   1   50.39   22.70
  -7  -7  -1   35.60   11.80
   7   8   1  420.56   67.59
  -7  -8  -1  453.95   44.70
   7   9   1  109.19   42.60
   7   9   1   65.49   18.10
  -7  -9  -1   49.50   16.00
   7  10   1   -8.50   25.30
   7  10   1    5.90   11.00
  -7 -10  -1   12.80   10.50
   8  -3   1   18.20   20.50
  -8   3  -1   -7.60    7.30
  -8   2  -1   33.50   10.10
   8  -1   1   47.20   18.30
  -8   1  -1   31.20    9.60
   8   0   1   24.80   16.90
   8   0   1   56.79   11.70
  -8   0  -1   58.39   12.30
   8   1   1  144.69   26.50
   8   1   1  155.58   16.10
   8   1   1  153.78   24.50
  -8  -1  -1  171.68   18.90
   8   2   1  107.29   21.50
   8   2   1   97.99   12.30
   8   2   1   59.09   24.70
  -8  -2  -1   86.49   15.70
   8   3   1   -9.50   13.90
   8   3   1    6.50    5.50
   8   3   1    5.20    9.00
  -8  -3  -1   23.30    8.00
   8   4   1   35.40   13.00
   8   4   1   28.20    7.70
   8   4   1   33.00   21.00
  -8  -4  -1   34.20   10.80
   8   5   1  792.62   59.69
   8   5   1  749.53   79.89
  -8  -5  -1  800.22   56.19
   8   6   1   18.40   23.20
   8   6   1   31.80   14.80
  -8  -6  -1   30.00    9.70
   8   7   1   48.00   29.00
   8   7   1   37.90   13.70
  -8  -7  -1   74.29   17.70
   8   8   1    7.20   18.70
   8   8   1    8.80   13.90
  -8  -8  -1   20.00   11.80
   8   9   1  243.18   59.19
   8   9   1  183.58   31.30
  -8  -9  -1  233.38   31.60
  -9   2  -1   -1.90    6.40
  -9   1  -1  224.68   25.30
  -9   0  -1  138.99   18.40
  -9  -1  -1   23.00    9.00
   9   2   1   15.00   16.80
   9   3   1  339.27   49.00
   9   4   1  180.98   41.70
  -9  -4  -1  143.39   19.00
   9   5   1   -0.70   14.10
  -9  -5  -1    8.50    5.70
   9   6   1   47.30   14.50
   9   6   1   37.20   24.90
  -9  -6  -1   35.50   11.20
   9   7   1  -23.60   10.80
   9   7   1    4.20   10.50
  -9  -7  -1  -13.40    6.20
   9   8   1  -12.30   20.60
   9   8   1   -7.90   11.10
  -9  -8  -1   19.30   11.70
 -10   0  -1  175.68   21.70
 -10  -1  -1   25.50    9.90
 -10  -2  -1  156.88   21.00
  10   3   1    6.60   24.80
 -10  -3  -1    8.00    8.00
  10   4   1   69.69   31.50
 -10  -4  -1   56.89   13.40
  10   5   1  109.39   37.10
 -10  -5  -1  167.38   21.20
  10   6   1  281.17   61.79
 -10  -6  -1  328.67   32.60
 -10  -6   2   28.10   11.70
  10   6  -2   25.50   30.10
 -10  -5   2  110.79   18.80
  10   5  -2   72.09   33.30
 -10  -4   2    5.40    7.20
  10   4  -2   22.90   26.20
  10   3  -2   77.99   35.10
 -10  -2   2   22.70    9.30
 -10  -1   2   10.80    8.60
  -9  -8   2   13.20   12.00
   9   8  -2    6.60   25.60
  -9  -7   2  189.18   28.50
   9   7  -2  101.79   41.90
  -9  -6   2    6.00    7.00
   9   6  -2  -14.20   20.50
  -9  -5   2  302.17   29.70
   9   5  -2  325.47   63.99
  -9  -4   2   13.10    6.60
   9   4  -2  -18.60   20.10
  -9  -3   2   13.10    6.90
   9   3  -2   30.30   23.50
  -9  -2   2  155.28   18.70
   9   2  -2  181.68   42.00
  -9  -1   2  210.48   21.50
   9   1  -2  202.48   41.50
  -9   0   2   -0.70    6.10
  -9   1   2   19.90    9.10
  -9   2   2   47.80   13.10
  -8  -9   2   40.50   15.00
   8   9  -2   24.20   28.10
  -8  -8   2   98.89   22.60
   8   8  -2  152.18   17.70
   8   8  -2   98.89   39.30
  -8  -7   2    3.30    7.40
   8   7  -2   30.70   25.70
  -8  -6   2  -16.10    6.00
   8   6  -2  -19.60    9.90
  -8  -5   2  395.66   34.50
   8   5  -2  423.86   61.49
  -8  -4   2  310.87   27.70
   8   4  -2  369.26   54.79
  -8  -3   2   85.49   13.90
   8   3  -2   79.19   31.20
  -8  -2   2   23.70    7.50
   8   2  -2    4.90   18.10
  -8  -1   2  590.84   41.90
   8   1  -2  630.04   65.79
  -8   0   2   33.50    8.60
  -8   1   2  569.24   42.60
  -8   2   2   54.09   14.30
  -8   3   2  292.37   30.70
  -7  -9   2   50.79   16.40
   7   9  -2   75.49   15.80
  -7  -8   2   20.40   10.00
   7   8  -2   24.40   22.10
   7   8  -2   16.20    8.30
  -7  -7   2   76.09   18.00
   7   7  -2   55.29   10.70
   7   7  -2   57.79   27.80
   7   7  -2   58.89   13.80
  -7  -6   2  105.59   19.90
   7   6  -2   98.09   12.10
   7   6  -2   92.89   11.00
   7   6  -2  106.89   33.30
   7   5  -2   27.20   18.10
  -7  -4   2  139.09   16.00
   7   4  -2  102.09   31.70
  -7  -3   2   32.40    8.70
   7   3  -2   21.50   13.60
  -7  -2   2    8.60    4.00
   7   2  -2   -1.90   12.00
  -7  -1   2  267.97   23.40
   7   1  -2  297.17   41.10
  -7   0   2   35.00    9.90
   7   0  -2   45.90   17.10
  -7   1   2  146.99   17.40
  -7   2   2  149.88   19.10
  -7   3   2   41.20   12.10
  -7   4   2   17.80    9.40
  -7   5   2   29.80   11.00
  -6 -10   2  127.19   25.80
  -6 -10   2  229.38   38.00
   6  10  -2  168.98   28.40
   6  10  -2  174.68   52.49
  -6  -9   2   -8.10    9.80
   6   9  -2   16.60   19.30
  -6  -8   2  443.86   44.00
   6   8  -2  445.36   69.99
   6   8  -2  425.66   37.90
  -6  -7   2   23.80   10.10
   6   7  -2   -9.40   12.50
   6   7  -2   10.70    7.30
  -6  -6   2  505.65   43.20
   6   6  -2  515.15   35.90
   6   6  -2  456.15   38.00
   6   6  -2  375.56   60.19
  -6  -5   2   61.29   14.40
   6   5  -2   92.69   10.40
   6   5  -2   61.59   24.60
   6   5  -2   61.09    9.50
  -6  -4   2 2724.53  154.58
   6   4  -2 2988.20  199.18
  -6  -3   2   90.79   25.40
  -6  -3   2  158.68   15.50
   6   3  -2  121.19   32.20
  -6  -2   2  372.16   38.40
  -6  -2   2  386.26   28.00
   6   2  -2  415.26   50.09
  -6  -1   2  124.79   21.70
  -6  -1   2  127.29   13.50
   6   1  -2  125.09   30.50
  -6   0   2 1360.06   88.59
  -6   0   2 1440.36   82.09
   6   0  -2 1451.15  104.49
  -6   1   2   78.79   13.50
  -6   2   2  233.28   23.00
   6  -2  -2  188.88   74.09
  -6   3   2  215.98   24.30
   6  -3  -2  229.58   74.29
   6  -4  -2   35.10   32.10
  -6   5   2  199.68   25.90
   6  -5  -2  175.18   65.69
   6  -5  -2  236.58   47.60
  -6   6   2  108.09   20.60
   6  -6  -2   84.99   60.19
  -5 -10   2   14.70   16.20
  -5 -10   2   -6.00    7.50
   5  10  -2   17.10    9.80
   5  10  -2  -31.20   18.80
  -5  -9   2  680.43   67.89
  -5  -9   2  568.94   53.59
   5   9  -2  380.46   78.99
   5   9  -2  557.24   49.40
  -5  -8   2   53.69   18.50
   5   8  -2   10.80   20.00
   5   8  -2   43.70   12.90
  -5  -7   2    0.60    7.00
   5   7  -2   -6.50    9.30
   5   7  -2    4.10    6.00
  -5  -6   2   61.09   14.70
   5   6  -2   63.69   12.10
   5   6  -2   24.60   16.40
  -5  -5   2  834.82   58.49
   5   5  -2  759.42   48.40
   5   5  -2  767.32   50.79
   5   5  -2  849.91   85.89
  -5  -4   2   15.70    6.50
  -5  -4   2   18.00   14.40
   5   4  -2   19.90    5.60
   5   4  -2   12.10   13.20
   5   4  -2   19.30    4.70
  -5  -3   2  156.68   15.10
   5   3  -2  142.29   34.20
  -5  -2   2   18.00    5.20
  -5  -2   2    0.20    9.30
   5   2  -2    2.60   10.10
  -5  -1   2  255.67   31.30
  -5  -1   2  285.07   27.00
  -5  -1   2  253.57   19.90
   5   1  -2  266.97   37.10
  -5   0   2    8.30    8.30
  -5   0   2    3.40    6.00
  -5   0   2   16.40    5.00
   5   0  -2    3.10    8.90
   5   0  -2    0.30   22.70
  -5   1   2  297.27   24.70
  -5   1   2  330.07   29.60
  -5   1   2  296.67   28.30
   5  -1  -2  257.67   78.39
  -5   2   2  203.58   22.20
  -5   2   2  212.98   20.80
   5  -2  -2  139.49   51.39
  -5   3   2  181.18   22.20
  -5   3   2  263.07   26.30
   5  -3  -2  227.68   27.20
   5  -3  -2  113.49   51.49
   5  -3  -2  294.07   26.60
  -5   4   2  185.88   22.50
  -5   4   2  154.28   23.50
   5  -4  -2  157.88   28.00
   5  -4  -2  159.98   28.60
   5  -4  -2  141.09   53.29
  -5   5   2   92.89   16.80
  -5   5   2   86.19   19.90
  -5   5   2   42.70   21.10
   5  -5  -2   93.99   22.30
   5  -5  -2   29.90   42.50
  -5   6   2  284.07   31.60
   5  -6  -2  194.38   78.79
   5  -6  -2  263.37   35.40
  -5   7   2   11.70    9.10
   5  -7  -2   24.20   48.30
   5  -7  -2  -15.00   17.40
  -4 -10   2   12.20   21.00
  -4 -10   2   22.10   18.10
   4  10  -2   68.69   36.10
   4  10  -2   12.90    9.70
  -4  -9   2   26.70   14.90
  -4  -9   2   -8.20    5.70
   4   9  -2    1.40   20.30
   4   9  -2   19.60    9.70
  -4  -8   2  267.67   51.19
  -4  -8   2  260.07   32.50
   4   8  -2  195.08   49.00
   4   8  -2  193.68   27.10
  -4  -7   2   12.50    8.80
   4   7  -2    6.80   12.90
   4   7  -2   -3.50    5.00
  -4  -6   2  104.49   21.40
   4   6  -2  116.09   20.90
   4   6  -2  128.39   36.20
  -4  -5   2   13.50   11.60
   4   5  -2    0.80    8.10
   4   5  -2    1.20    4.30
  -4  -4   2 1149.08   83.49
  -4  -4   2 1242.58   75.39
   4   4  -2 1115.09   69.09
   4   4  -2 1275.37   67.79
   4   4  -2 1066.19  116.79
  -4  -3   2  410.06  123.49
  -4  -3   2  481.25   44.30
  -4  -3   2  466.75   33.20
   4   3  -2  503.15   56.09
   4   3  -2  531.75   32.10
  -4  -2   2   22.90   24.60
  -4  -2   2   23.30   11.20
  -4  -2   2   12.80    8.20
  -4  -2   2   25.10    5.40
   4   2  -2   18.50    9.90
  -4  -1   2  139.89   18.00
  -4  -1   2  116.89   47.80
  -4  -1   2  128.79   20.20
  -4  -1   2  115.09   12.20
   4   1  -2  153.78   30.20
  -4   0   2 3050.39  258.57
  -4   0   2 3280.47  184.48
  -4   0   2 3215.98  173.18
  -4   0   2 3209.58  166.78
   4   0  -2 2934.31  251.27
   4   0  -2 3351.66  194.48
  -4   1   2  799.72   48.90
  -4   1   2  742.13   51.39
  -4   1   2  790.72   58.99
  -4   2   2  102.79   12.50
  -4   2   2   96.09   12.80
  -4   2   2   89.89   19.80
   4  -2  -2  100.09   16.90
   4  -2  -2  108.99   13.90
   4  -2  -2  123.99   49.20
  -4   3   2  108.89   24.30
   4  -3  -2   67.89   37.40
   4  -3  -2  130.79   20.60
   4  -3  -2  129.39   21.90
  -4   4   2  449.06   51.29
  -4   4   2  421.26   37.10
   4  -4  -2  364.56   38.60
   4  -4  -2  291.07   83.59
   4  -4  -2  443.46   39.80
  -4   5   2  -11.60   18.10
  -4   5   2   13.90    7.80
   4  -5  -2  -12.10   26.20
   4  -5  -2   13.90   10.30
  -4   6   2   96.69   19.30
   4  -6  -2   59.69   43.50
   4  -6  -2   88.09   22.40
  -4   7   2    7.20    8.60
   4  -7  -2  -30.90   29.50
   4  -7  -2  -10.10   12.40
  -3 -10   2   46.60   19.40
  -3 -10   2   71.29   35.30
   3  10  -2   31.00   13.10
   3  10  -2  118.19   47.80
  -3  -9   2   70.19   18.80
   3   9  -2   81.59   19.90
   3   9  -2  141.59   42.90
  -3  -8   2   66.99   28.50
  -3  -8   2   54.29   16.30
   3   8  -2   69.89   32.90
   3   8  -2   61.29   18.90
  -3  -7   2  238.28   36.10
  -3  -7   2  173.98   30.90
   3   7  -2  170.18   43.90
   3   7  -2  188.58   30.60
  -3  -6   2  173.78   28.80
   3   6  -2   92.69   31.90
   3   6  -2  102.99   19.40
  -3  -5   2  601.84   53.09
   3   5  -2  495.55   61.59
   3   5  -2  510.15   40.80
   3   5  -2  575.74   44.30
  -3  -4   2  246.48   26.60
  -3  -4   2  210.68   24.90
   3   4  -2  228.38   20.70
   3   4  -2  179.48   37.60
   3   4  -2  259.37   22.10
  -3  -3   2 1800.52   95.69
  -3  -3   2 1707.03   99.19
   3   3  -2 1543.85  116.49
   3   3  -2 1556.64   88.49
   3   3  -2 1638.24   90.09
  -3  -2   2   47.00   14.60
  -3  -2   2   52.59   25.60
  -3  -2   2   70.99   13.10
   3   2  -2   38.80   15.10
  -3  -1   2  592.14   33.00
  -3  -1   2  584.74   42.10
  -3  -1   2  647.04   51.79
  -3  -1   2  533.95   79.39
   3   1  -2  622.54   55.19
   3   1  -2  563.74   79.59
  -3   0   2   78.39   33.40
  -3   0   2   76.49    7.50
  -3   0   2   94.59   19.50
  -3   0   2   82.89   10.30
   3   0  -2   86.19   20.60
   3   0  -2   78.29   34.90
  -3   1   2  648.44   56.49
  -3   1   2  780.62   46.70
  -3   1   2  652.43   89.49
  -3   1   2  728.73   44.00
  -3   2   2    1.40    2.80
  -3   2   2   10.00    7.90
  -3   2   2    2.20    2.90
  -3   2   2   21.30   23.00
   3  -2  -2   16.20   18.00
   3  -2  -2   -2.70    5.50
   3  -2  -2   -3.30    4.20
  -3   3   2 3420.16  182.18
  -3   3   2 3664.83  216.58
  -3   3   2 3055.99  184.88
   3  -3  -2 3480.25  188.98
   3  -3  -2 3345.77  189.38
  -3   4   2   76.69   16.60
   3  -4  -2   81.09   18.10
   3  -4  -2   35.90   30.00
   3  -4  -2   80.69   20.40
  -3   5   2   23.60   11.60
   3  -5  -2   11.50   11.90
   3  -5  -2   48.00   34.60
  -3   6   2  212.88   33.30
   3  -6  -2  156.88   31.30
   3  -6  -2  141.19   57.49
  -3   7   2  293.87   35.50
   3  -7  -2  287.77   39.30
   3  -7  -2  262.97   81.99
  -3   8   2  129.79   28.30
  -3   8   2  176.08   38.40
   3  -8  -2  110.49   66.49
   3  -8  -2  153.48   29.70
  -2 -10   2   56.99   18.70
   2  10  -2   78.59   24.40
   2  10  -2   45.50   34.40
  -2  -9   2   38.50   15.40
  -2  -9   2   43.30   26.70
   2   9  -2   49.90   27.60
   2   9  -2   33.80   14.30
  -2  -8   2 1329.57  127.69
  -2  -8   2 1422.56   99.59
   2   8  -2 1466.95  131.79
   2   8  -2 1501.55  103.39
  -2  -7   2   21.10    8.30
  -2  -7   2   31.20   20.10
   2   7  -2   31.40   19.10
   2   7  -2   31.60   13.80
  -2  -6   2 1394.76  103.99
  -2  -6   2 1201.28   86.49
   2   6  -2 1225.68   82.69
   2   6  -2 1097.59  104.29
  -2  -5   2   49.90   18.40
   2   5  -2   75.39   15.10
   2   5  -2   51.59   15.40
   2   5  -2   47.20   18.50
  -2  -4   2 1945.11  115.09
  -2  -4   2 1811.82  111.39
   2   4  -2 1851.71  107.09
   2   4  -2 1871.61  132.69
   2   4  -2 1868.11  113.89
  -2  -3   2   42.90    9.80
  -2  -3   2   26.80    8.40
   2   3  -2   32.90    8.30
   2   3  -2   24.90    6.40
   2   3  -2   17.50   10.60
  -2  -2   2 8255.87  465.25
  -2  -2   2 7814.22  420.36
  -2  -2   2 8431.56  420.36
  -2  -2   2 8309.37  439.76
   2   2  -2 8193.88  416.56
   2   2  -2 7741.93  444.66
   2   2  -2 8952.00  416.36
  -2  -1   2   16.40   11.30
  -2  -1   2    3.40    4.60
   2   1  -2    0.60    7.80
   2   1  -2   -1.90    4.00
  -2   0   2    0.00    4.50
  -2   0   2    2.20   12.00
   2   0  -2    7.10    6.00
   2   0  -2   -0.70   10.30
  -2   1   2  658.23   40.10
  -2   1   2  603.04   53.99
  -2   2   2 1180.88   73.29
  -2   2   2 1179.18  109.99
  -2   2   2 1240.88   68.89
   2  -2  -2 1217.58   72.39
   2  -2  -2 1168.28   74.89
  -2   3   2   58.39   10.90
  -2   3   2   76.09   15.70
  -2   3   2   38.20   21.10
   2  -3  -2   62.89   15.10
   2  -3  -2   92.49   17.90
   2  -3  -2   73.99   33.30
   2  -4  -2  115.09   70.69
   2  -4  -2  223.78   27.20
  -2   5   2  125.49   23.60
   2  -5  -2   57.19   38.90
   2  -5  -2  108.19   20.80
  -2   6   2   16.30    9.30
   2  -6  -2    8.30   21.30
   2  -6  -2    1.80    6.20
  -2   7   2    8.50    8.10
   2  -7  -2   22.90   31.40
   2  -8  -2   31.30   42.60
  -2   9   2  -14.30   11.00
  -2   9   2    6.50   22.80
   2  -9  -2   20.90   17.30
   2  -9  -2  -15.20   44.40
  -1 -10   2   27.50   11.50
   1  10  -2   20.80   13.60
   1  10  -2  -29.90   26.50
  -1  -9   2   -9.60    7.50
   1   9  -2   -1.10   11.50
   1   9  -2   -9.40    8.20
  -1  -8   2   14.60   22.40
  -1  -8   2    9.30    8.60
   1   8  -2   11.10    8.20
   1   8  -2   18.30   20.30
  -1  -7   2  167.98   30.80
  -1  -7   2  104.79   37.70
   1   7  -2  206.08   26.90
   1   7  -2  186.38   44.50
  -1  -6   2   -5.00   10.80
  -1  -6   2    1.90    5.00
   1   6  -2   -0.10    7.00
   1   6  -2   11.50    7.20
  -1  -5   2  372.66   36.40
  -1  -5   2  380.76   50.09
   1   5  -2  411.86   35.60
   1   5  -2  354.66   46.70
  -1  -4   2  141.59   19.20
  -1  -4   2  163.28   19.00
   1   4  -2  158.98   25.80
   1   4  -2  121.59   27.50
   1   4  -2  143.29   17.20
  -1  -3   2  732.53   51.79
  -1  -3   2  722.83   48.80
   1   3  -2  783.72   54.49
   1   3  -2  761.92   48.10
   1   3  -2  722.03   63.19
  -1  -2   2   -1.00    2.50
  -1  -2   2   -0.60    3.80
  -1  -2   2    2.60    2.00
   1   2  -2    2.50    4.70
   1   2  -2    1.20    1.60
   1   2  -2    0.60    3.10
  -1  -1   2  176.48   26.00
  -1  -1   2  211.88   13.10
  -1  -1   2  230.68   25.20
  -1  -1   2  235.38   15.60
   1   1  -2  247.28   28.40
   1   1  -2  198.78   27.60
  -1   0   2   26.10   10.90
  -1   0   2   41.10   12.30
   1   0  -2   41.80   12.60
   1   0  -2   23.50   11.30
  -1   1   2 1530.55  109.99
  -1   1   2 1560.44   81.19
  -1   1   2 1704.23  115.59
  -1   1   2 1570.84   91.49
   1  -1  -2 1586.04   87.69
   1  -1  -2 1273.27  115.99
   1  -1  -2 1556.34   81.89
  -1   2   2  119.59   30.10
  -1   2   2  161.78   14.40
  -1   2   2  155.88   19.60
   1  -2  -2  141.49   14.00
   1  -2  -2  156.28   19.90
   1  -2  -2  117.09   36.60
  -1   3   2 1519.55   97.69
  -1   3   2 1775.22  126.39
  -1   3   2 1577.44   90.09
   1  -3  -2 1422.16   97.59
   1  -3  -2 1536.85   91.49
   1  -3  -2 1365.26  143.29
  -1   4   2  448.16   45.40
  -1   4   2  653.53   68.99
   1  -4  -2  549.15   49.10
   1  -4  -2  583.94   44.70
   1  -4  -2  459.15   82.69
  -1   5   2  100.59   22.40
   1  -5  -2  100.39   19.80
   1  -5  -2  104.79   50.19
  -1   6   2  147.39   29.20
   1  -6  -2  176.08   61.19
   1  -6  -2  167.88   28.10
  -1   7   2 1426.66  113.19
   1  -7  -2  895.41  145.99
   1  -7  -2 1282.27   87.19
  -1   8   2   28.40   17.40
   1  -8  -2    1.80   33.90
   1  -8  -2   45.50   13.90
  -1   9   2   56.19   30.90
   1  -9  -2   14.00    9.40
   1  -9  -2   10.10   44.70
   0 -10   2    7.70   10.30
   0  10  -2  -26.80   29.30
   0  -9   2  229.48   39.10
   0   9  -2  291.17   39.20
   0   9  -2  346.57   70.69
   0  -8   2  279.47   65.79
   0  -8   2  316.87   38.60
   0   8  -2  493.25   65.09
   0  -7   2  164.68   47.10
   0  -7   2  185.08   31.90
   0   7  -2  230.88   29.00
   0   7  -2  152.78   41.70
   0  -6   2    8.80    7.70
   0  -6   2   25.40   16.30
   0  -5   2   71.79   17.80
   0  -5   2   81.89   24.60
   0   5  -2   50.29   12.30
   0   5  -2   35.60   16.30
   0  -4   2 2351.36  135.29
   0  -4   2 2377.26  134.09
   0   4  -2 2384.46  134.09
   0   4  -2 2168.38  131.49
   0   4  -2 2252.27  149.59
   0  -3   2   55.99   11.20
   0  -3   2   46.10   14.40
   0  -3   2   55.79   12.30
   0   3  -2   42.80    9.30
   0   3  -2   42.20    9.90
   0   3  -2   58.99   15.90
   0  -2   2 1404.76   77.39
   0  -2   2 1341.97   85.99
   0  -2   2 1332.57   77.89
   0   2  -2 1411.36   78.39
   0   2  -2 1389.26   77.19
   0   2  -2 1308.47   90.69
   0  -1   2   72.89    7.00
   0  -1   2   62.99   14.40
   0  -1   2   57.69    6.80
   0   1  -2   60.89   13.80
   0   1  -2   68.69    6.80
   0   0   2  269.27   18.50
   0   0   2  284.57   16.90
   0   0   2  306.97   31.00
   0   0  -2  273.87   17.90
   0   0  -2  294.57   30.40
   0   0  -2  276.87   26.80
   0   0  -2  289.57   16.70
   0   1   2  141.59   23.60
   0   1   2  113.19   18.90
   0  -1  -2  140.59   25.60
   0  -1  -2  127.29   16.70
   0  -1  -2  129.09   12.30
   0   2   2 2696.93  141.79
   0   2   2 2424.56  152.08
   0  -2  -2 2810.92  180.38
   0  -2  -2 2541.05  140.69
   0  -2  -2 2305.17  150.18
   0   3   2  101.29   22.20
   0  -3  -2   49.30   12.00
   0  -3  -2   45.90   15.40
   0  -3  -2   91.99   33.30
   0   4   2  142.09   28.50
   0   4   2  187.08   22.10
   0  -4  -2  139.29   19.40
   0  -4  -2  134.99   46.00
   0  -4  -2  172.58   31.00
   0   5   2   33.20   13.80
   0  -5  -2   24.10   24.10
   0  -5  -2   29.50   10.60
   0   6   2   94.69   24.70
   0  -6  -2   92.29   20.20
   0  -6  -2   71.99   37.70
   0   7   2    5.90    9.50
   0  -7  -2  -20.40   15.50
   0  -7  -2   11.20    9.00
   0   8   2  131.89   29.70
   0  -8  -2   66.59   17.60
   0  -8  -2   48.50   44.10
   0   9   2   92.59   24.90
   0  -9  -2   42.70   16.50
   0  10   2   21.60   17.50
   0  10   2   44.60   33.30
   0 -10  -2   66.29   48.60
   0 -10  -2   63.29   18.40
   1  -9   2    4.20   30.30
   1  -9   2    5.00   10.00
  -1   9  -2   -8.70   12.60
   1  -8   2    8.70   10.00
   1  -8   2  -16.80   22.90
  -1   8  -2  -14.90   22.00
  -1   8  -2   14.00   10.10
   1  -7   2  237.58   42.00
   1  -7   2  196.28   53.89
  -1   7  -2  180.48   41.90
  -1   7  -2  256.47   30.80
   1  -6   2   12.20   21.70
   1  -6   2   32.20   13.30
  -1   6  -2   37.50   13.60
   1  -5   2 1836.02  119.19
  -1   5  -2 1959.50  133.69
  -1   5  -2 1920.11  116.89
   1  -4   2   -2.00    5.10
   1  -4   2   -8.60    8.90
  -1   4  -2    5.60    6.80
  -1   4  -2    3.50    6.20
   1  -3   2  517.55   38.00
   1  -3   2  426.26   58.29
   1  -3   2  503.55   38.60
  -1   3  -2  493.25   37.80
  -1   3  -2  517.05   36.70
  -1   3  -2  569.34   53.79
  -1   3  -2  504.65   46.00
   1  -2   2   20.60    6.30
   1  -2   2   26.60    6.80
   1  -2   2   18.80   14.60
  -1   2  -2    3.80    9.40
  -1   2  -2   19.60    8.30
  -1   2  -2   21.00    6.30
  -1   2  -2   22.00    6.30
   1  -1   2 5889.21  323.87
   1  -1   2 6045.10  324.87
   1  -1   2 6292.77  319.07
  -1   1  -2 6239.88  319.57
  -1   1  -2 6786.22  354.66
  -1   1  -2 6394.26  319.07
  -1   1  -2 6039.20  328.37
   1   0   2   -4.10    4.40
   1   0   2    4.40    3.50
   1   0   2    0.50    1.30
  -1   0  -2   -0.50    0.80
  -1   0  -2    1.10    2.40
   1   1   2  393.66   25.10
  -1  -1  -2  373.36   26.60
  -1  -1  -2  400.06   34.60
   1   2   2    6.50    4.00
   1   2   2    5.10   10.30
  -1  -2  -2   -0.80    1.90
  -1  -2  -2    2.70   11.60
   1   3   2 4387.16  241.18
   1   3   2 4046.00  223.38
  -1  -3  -2 4024.20  237.48
  -1  -3  -2 3901.51  221.08
   1   4   2  181.58   35.70
   1   4   2  162.28   22.60
  -1  -4  -2  203.98   35.00
  -1  -4  -2  176.38   21.90
  -1  -4  -2  109.19   25.60
   1   5   2  250.67   35.30
  -1  -5  -2  283.47   47.90
  -1  -5  -2  267.47   30.40
   1   6   2  258.07   45.30
  -1  -6  -2  299.87   56.69
  -1  -6  -2  299.17   32.90
   1   7   2    8.20   10.70
  -1  -7  -2   25.50   11.60
  -1  -7  -2   39.70   21.50
   1   8   2  105.29   27.70
  -1  -8  -2   46.90   14.20
  -1  -8  -2   88.59   37.30
   1   9   2  109.09   29.00
  -1  -9  -2   72.89   16.70
  -1  -9  -2   58.29   41.40
   1  10   2  219.68   42.20
   1  10   2  234.38   59.89
  -1 -10  -2  124.89   60.29
  -1 -10  -2  140.39   27.70
   2  -9   2   86.59   49.30
   2  -9   2  104.79   29.40
  -2   9  -2  130.89   26.90
  -2   9  -2  175.78   41.70
   2  -8   2   -7.80   21.50
   2  -8   2    6.90   16.30
  -2   8  -2   13.90   10.70
  -2   8  -2   17.60   19.90
   2  -7   2  101.29   45.10
   2  -7   2  229.28   46.10
  -2   7  -2  178.18   40.50
  -2   7  -2  218.08   27.60
   2  -6   2  373.16   82.99
   2  -6   2  445.16   53.29
  -2   6  -2  450.55   42.10
  -2   6  -2  478.95   55.09
   2  -5   2  186.28   52.49
   2  -5   2  349.37   41.70
  -2   5  -2  308.67   45.20
  -2   5  -2  273.27   30.00
  -2   5  -2  308.47   37.50
   2  -4   2  220.38   56.69
   2  -4   2  255.77   33.00
  -2   4  -2  231.48   38.90
  -2   4  -2  223.98   24.50
  -2   4  -2  188.58   28.50
   2  -3   2  179.48   19.50
   2  -3   2  181.08   24.20
   2  -3   2  196.18   55.49
  -2   3  -2  140.89   36.90
  -2   3  -2  189.08   20.00
  -2   3  -2  178.28   22.70
  -2   3  -2  161.38   18.50
   2  -2   2  726.33   48.20
   2  -2   2  751.82   55.69
   2  -2   2  851.21   96.39
  -2   2  -2  736.03   48.00
  -2   2  -2  748.73   50.89
  -2   2  -2  745.53   48.60
  -2   2  -2  660.53   77.09
   2  -1   2  230.08   23.60
   2  -1   2  229.28   17.10
   2  -1   2  194.28   17.20
  -2   1  -2  142.59   40.60
  -2   1  -2  188.48   20.40
  -2   1  -2  196.68   17.40
   2   0   2   28.70    8.80
   2   0   2   19.50    5.20
  -2   0  -2   11.90    5.40
  -2   0  -2   17.40    4.70
   2   1   2   24.40    6.00
   2   1   2   29.50   11.50
  -2  -1  -2   29.40    6.60
  -2  -1  -2   26.70   10.70
   2   2   2  310.57   23.50
   2   2   2  290.17   38.30
  -2  -2  -2  311.47   23.60
  -2  -2  -2  341.47   40.80
   2   3   2  145.79   30.60
   2   3   2  141.29   16.40
  -2  -3  -2  117.69   15.60
  -2  -3  -2  107.89   26.30
   2   4   2 2200.08  132.49
   2   4   2 2053.89  146.89
  -2  -4  -2 2255.67  131.89
  -2  -4  -2 2357.06  152.68
   2   5   2  174.58   35.10
  -2  -5  -2  228.48   27.00
   2   6   2   93.39   28.40
  -2  -6  -2   95.59   21.40
  -2  -6  -2  117.99   32.80
   2   7   2  131.29   31.80
  -2  -7  -2  148.49   26.60
  -2  -7  -2  150.98   43.10
   2   8   2  738.83   68.29
  -2  -8  -2  572.84   51.59
  -2  -8  -2  598.54   83.59
   2   9   2    7.00   11.00
  -2  -9  -2   28.70   26.90
  -2  -9  -2    2.10    6.00
   2  10   2   37.30   13.20
   2  10   2   16.20   20.10
  -2 -10  -2   10.70   31.80
   3  -8   2  148.59   54.69
   3  -8   2  125.79   37.30
  -3   8  -2  139.09   36.20
  -3   8  -2  127.89   26.10
   3  -7   2   71.29   45.70
   3  -7   2  111.09   33.90
  -3   7  -2  124.09   24.90
  -3   7  -2  109.79   28.30
   3  -6   2  547.05   59.09
   3  -6   2  390.96   90.19
  -3   6  -2  481.95   43.60
  -3   6  -2  441.96   48.90
   3  -5   2  120.89   29.80
   3  -5   2  142.49   48.70
  -3   5  -2   94.49   18.10
  -3   5  -2   92.89   21.80
   3  -4   2  471.75   85.99
   3  -4   2  545.55   54.39
  -3   4  -2  611.14   76.09
  -3   4  -2  534.55   44.10
  -3   4  -2  586.44   46.70
   3  -3   2  210.78   29.30
   3  -3   2  230.38   63.99
  -3   3  -2  248.78   24.10
  -3   3  -2  165.28   45.00
  -3   3  -2  227.08   21.50
   3  -2   2  348.07   34.30
   3  -2   2  295.77   25.60
  -3   2  -2  216.68   55.89
  -3   2  -2  290.77   25.50
  -3   2  -2  289.77   25.60
   3  -1   2 5475.55  298.77
   3  -1   2 5354.16  287.17
  -3   1  -2 5709.33  287.67
   3   0   2  359.66   34.90
   3   0   2  327.87   25.70
  -3   0  -2  362.16   26.40
  -3   0  -2  409.56   35.60
   3   1   2 1122.49   65.09
   3   1   2 1099.59   80.69
  -3  -1  -2 1124.49   65.09
   3   2   2  -13.90    9.30
   3   2   2    1.20    2.60
  -3  -2  -2    4.00    2.90
   3   3   2 7281.17  418.96
   3   3   2 7682.93  388.76
  -3  -3  -2 6921.91  432.36
  -3  -3  -2 8000.20  390.16
   3   4   2   69.89   14.90
   3   4   2  119.29   28.30
  -3  -4  -2   87.69   27.20
  -3  -4  -2   60.79   14.30
   3   5   2  769.52   71.59
  -3  -5  -2  697.63   56.29
   3   6   2   22.10   12.50
  -3  -6  -2   10.00    8.80
   3   7   2  610.34   65.09
  -3  -7  -2  721.53   76.89
  -3  -7  -2  667.23   57.09
   3   8   2    7.80   14.70
  -3  -8  -2    4.90   14.00
  -3  -8  -2   17.90    8.80
   3   9   2  533.35   58.89
  -3  -9  -2  447.16   45.60
  -3  -9  -2  506.05   73.09
   3  10   2   42.70   31.70
  -3 -10  -2   30.30   27.40
   4  -7   2   35.20   21.00
   4  -6   2  147.69   39.00
  -4   6  -2  179.98   24.50
  -4   6  -2  160.38   24.70
   4  -5   2  -19.10   11.60
  -4   5  -2    5.80    7.80
   4  -4   2   40.50   19.10
  -4   4  -2   55.49   13.30
   4  -3   2  161.58   31.30
  -4   3  -2  216.38   22.50
   4  -2   2  517.35   39.40
   4  -2   2  597.24   52.09
  -4   2  -2  536.55   40.50
   4  -1   2   -5.40    2.20
  -4   1  -2    0.20    6.70
  -4   1  -2    9.50   20.30
   4   0   2 1298.17   78.29
   4   0   2 1389.06   94.49
   4   0   2 1345.27   77.19
  -4   0  -2 1437.26   91.59
  -4   0  -2 1336.07   78.99
   4   1   2   48.40    9.30
   4   1   2   15.40   12.30
  -4  -1  -2   43.10    8.90
  -4  -1  -2   46.90   14.60
   4   2   2  195.28   18.50
   4   2   2  190.58   36.90
  -4  -2  -2  224.68   19.60
  -4  -2  -2  174.48   31.60
   4   3   2   27.70   18.40
   4   3   2   25.70    7.60
  -4  -3  -2   15.60    6.60
  -4  -3  -2   -7.60   13.50
   4   4   2   49.40   21.70
   4   4   2   35.60    9.10
  -4  -4  -2   37.50   10.60
   4   5   2    2.10    8.20
  -4  -5  -2   12.70    5.60
   4   6   2 1207.48   99.99
  -4  -6  -2 1275.07   87.29
   4   7   2  323.47   53.29
  -4  -7  -2  298.27   34.10
   4   8   2   58.89   22.70
  -4  -8  -2   71.39   19.00
  -4  -8  -2   86.69   27.10
   4   9   2  -15.30   11.10
  -4  -9  -2   17.60   16.80
  -4  -9  -2   -0.60    8.20
   4  10   2   -4.50   14.90
   4  10   2   47.80   34.50
  -4 -10  -2   36.10   14.80
  -4 -10  -2   57.89   24.90
   5  -7   2   36.70   24.10
  -5   7  -2   28.30   12.50
   5  -6   2  194.78   42.60
  -5   6  -2  221.78   28.00
   5  -5   2  352.46   46.10
  -5   5  -2  406.86   38.00
   5  -4   2  400.36   48.90
  -5   4  -2  483.85   40.60
   5  -3   2   28.20   16.20
  -5   3  -2   22.30    8.50
   5  -2   2  802.72   67.89
  -5   2  -2  736.73   52.79
   5  -1   2   45.10   15.50
   5  -1   2   53.69   10.60
  -5   1  -2   31.50    9.10
   5   0   2 1083.79   80.59
   5   0   2  945.61   58.49
   5   0   2  956.50   59.99
  -5   0  -2  931.51   61.09
   5   1   2  823.72   71.39
   5   1   2  833.02   58.79
  -5  -1  -2  767.22   51.49
   5   2   2   26.60   17.80
   5   2   2   29.70    8.70
  -5  -2  -2   26.40    7.50
   5   3   2  623.74   43.10
   5   3   2  616.44   64.49
  -5  -3  -2  658.33   47.70
  -5  -4  -2  411.56   33.90
   5   5   2   47.50   17.10
  -5  -5  -2   23.30    8.30
   5   6   2    6.50   11.70
  -5  -6  -2   26.30    9.90
   5   7   2  251.17   45.00
  -5  -7  -2  202.18   26.30
   5   8   2  -12.60   11.30
  -5  -8  -2   -4.90    6.30
   5   9   2   10.80   17.00
   5   9   2  -12.50   11.40
  -5  -9  -2   14.50   10.20
   5  10   2   28.80   27.20
   5  10   2  -15.20   12.80
  -5 -10  -2  -16.40   13.50
  -5 -10  -2    6.80   10.00
   6  -6   2  -12.30   18.40
  -6   6  -2   13.10   10.40
   6  -5   2  -17.00   13.00
  -6   5  -2   14.30    7.60
   6  -4   2  189.78   40.10
  -6   4  -2  250.27   27.20
   6  -3   2  164.28   33.50
  -6   3  -2  201.88   22.70
   6  -2   2   84.69   24.00
  -6   2  -2   65.19   13.40
   6  -1   2   78.79   23.20
  -6   1  -2   89.69   16.60
   6   0   2  923.81   60.89
   6   0   2 1049.59   85.49
  -6   0  -2 1024.50   64.39
   6   1   2  522.45   37.10
   6   1   2  526.65   44.60
   6   1   2  551.94   57.59
  -6  -1  -2  484.85   37.60
   6   2   2   32.10   12.50
   6   2   2   12.90    6.10
   6   2   2   29.40   19.70
  -6  -2  -2   30.80    8.40
   6   3   2   51.39   22.30
   6   3   2   51.29   19.00
   6   3   2   58.09   10.80
  -6  -3  -2   41.20   10.40
   6   4   2  915.11   82.69
  -6  -4  -2 1054.59   66.29
   6   5   2   -1.40    9.40
  -6  -5  -2   -7.30    4.20
   6   6   2 1658.93  120.69
  -6  -6  -2 1673.23  105.69
   6   7   2  180.58   35.30
  -6  -7  -2  137.09   25.90
   6   8   2  297.67   69.19
   6   8   2  299.07   40.20
  -6  -8  -2  287.87   34.80
   6   9   2   50.69   28.50
   6   9   2   34.60   16.70
  -6  -9  -2   54.69   15.70
   6  10   2  592.74   61.99
   6  10   2  562.74   86.39
  -6 -10  -2  740.83   81.99
  -6 -10  -2  690.23   59.49
   7  -5   2   63.39   29.10
  -7   5  -2   46.10   14.10
   7  -4   2   23.20   18.70
  -7   4  -2   34.60   12.10
   7  -3   2    4.10   15.70
  -7   3  -2   10.50    8.00
   7  -2   2   20.40   17.40
   7  -1   2  242.68   41.00
  -7   1  -2  186.48   22.00
   7   0   2  100.69   28.10
   7   0   2   85.59   18.40
  -7   0  -2  101.89   17.20
   7   1   2  564.14   48.50
   7   1   2  593.54   71.19
   7   1   2  566.24   41.20
  -7  -1  -2  650.13   44.70
   7   2   2   29.70   15.00
   7   2   2   15.60    7.60
  -7  -2  -2   38.20   10.00
   7   3   2   10.90    6.80
   7   3   2   -0.30   10.10
  -7  -3  -2    5.20    5.10
   7   4   2  386.46   46.30
   7   4   2  432.56   51.89
  -7  -4  -2  435.56   35.10
   7   5   2  724.33   65.09
   7   5   2  583.74   71.19
  -7  -5  -2  747.33   52.49
   7   6   2   16.80   13.50
   7   6   2   42.30   17.10
  -7  -6  -2   65.89   14.60
   7   7   2   15.80   15.30
   7   7   2  -17.30    9.70
  -7  -7  -2   10.00    8.40
   7   8   2   65.99   28.60
   7   8   2   44.90   19.50
  -7  -8  -2   78.69   19.70
   7   9   2    9.20   21.30
   7   9   2   14.70   15.50
  -7  -9  -2   22.40   11.30
   8  -3   2   26.70   25.00
  -8   3  -2   16.80    8.40
   8  -2   2   87.29   25.40
  -8   2  -2   39.30   12.50
   8  -1   2   49.80   23.30
  -8   1  -2   57.79   13.20
   8   0   2  103.99   28.70
  -8   0  -2  118.99   16.30
   8   1   2  580.64   40.00
   8   1   2  520.85   58.49
  -8  -1  -2  572.84   44.10
   8   2   2   42.10   19.30
   8   2   2   35.30   18.60
   8   2   2   75.59   12.80
  -8  -2  -2   85.09   15.10
   8   3   2  177.18   36.50
   8   3   2  180.08   33.10
  -8  -3  -2  149.59   18.50
   8   4   2   91.49   27.80
   8   4   2   89.69   24.00
  -8  -4  -2   63.59   13.80
   8   5   2  300.37   38.70
   8   5   2  337.07   48.40
   8   6   2    4.00   16.20
   8   6   2    6.70   11.90
  -8  -6  -2    9.60    7.70
   8   7   2   95.39   35.50
   8   7   2  104.49   24.80
  -8  -7  -2  146.29   24.70
   8   8   2   12.90   10.70
   8   8   2  -14.10   18.20
  -8  -8  -2    6.10   10.30
   8   9   2   22.80   13.70
   8   9   2    1.70   18.80
  -8  -9  -2    5.10    9.00
  -9   2  -2   37.30   11.40
   9  -1   2  -36.80   33.30
  -9   1  -2    6.50    6.70
   9   0   2  140.39   36.20
  -9   0  -2  142.59   19.50
  -9  -1  -2   14.20    9.20
   9   2   2   12.20   15.20
  -9  -2  -2    8.10    6.50
   9   3   2   59.49   18.30
   9   3   2   49.40   23.10
  -9  -3  -2   56.09   12.60
   9   4   2   42.10   21.30
   9   4   2   31.80   15.60
  -9  -4  -2   27.00    9.10
   9   5   2    4.40   14.70
   9   5   2   11.20   11.90
  -9  -5  -2   13.70    6.00
   9   6   2  -13.70   16.20
   9   6   2   -8.20   11.20
  -9  -6  -2    3.40    5.90
   9   7   2   86.69   20.10
   9   7   2   36.40   24.00
  -9  -7  -2   67.39   17.20
   9   8   2  110.69   59.29
   9   8   2   89.59   22.40
  -9  -8  -2  104.69   24.90
 -10  -1  -2   16.20    8.30
 -10  -2  -2  115.19   18.60
 -10  -3  -2   59.59   14.40
  10   4   2   44.20   26.60
 -10  -4  -2   34.80   10.40
  10   5   2   95.29   38.70
 -10  -5  -2  151.78   23.00
  10   6   2   71.89   31.30
 -10  -6  -2  104.19   20.50
 -10  -6   3   56.89   13.50
  10   6  -3   78.09   33.00
 -10  -5   3   57.69   14.50
  10   5  -3   72.69   36.90
 -10  -4   3  140.69   21.20
  10   4  -3  185.08   66.59
 -10  -3   3  117.49   17.60
  10   3  -3   97.89   40.90
 -10  -2   3   45.60    9.60
  -9  -8   3  105.79   22.80
   9   8  -3   44.70   36.70
  -9  -7   3   -7.60    7.50
   9   7  -3   35.10   18.20
   9   6  -3  -24.50   18.10
  -9  -5   3  145.39   19.70
   9   5  -3  140.89   44.80
  -9  -4   3  102.09   17.00
   9   4  -3   98.39   36.00
  -9  -3   3   -4.60    5.30
   9   3  -3    8.20   21.30
   9   2  -3   25.70   30.60
  -9  -1   3   -4.90    4.50
   9   1  -3   -2.90   25.90
  -9   0   3   12.40    7.70
  -9   2   3   17.30    7.80
  -8  -9   3  181.18   30.20
   8   9  -3  162.88   49.50
  -8  -8   3  167.68   30.00
   8   8  -3  174.88   50.69
  -8  -7   3    7.20    9.50
   8   7  -3   30.70   27.90
  -8  -6   3   13.20    8.30
   8   6  -3   -8.10   17.30
  -8  -5   3  545.25   42.20
   8   5  -3  512.75   70.79
  -8  -4   3  171.68   18.60
   8   4  -3  135.29   41.00
  -8  -3   3  425.36   32.40
   8   3  -3  465.55   61.89
  -8  -2   3  147.59   16.10
   8   2  -3  136.09   40.30
  -8  -1   3   21.80    7.00
   8   1  -3   30.40   19.70
  -8   0   3   -3.60    5.00
  -8   1   3  382.86   31.90
  -8   2   3    3.90    5.80
  -8   3   3    7.50    9.10
  -7  -9   3   -7.20    9.80
   7   9  -3    2.30   16.30
   7   9  -3    9.70    9.30
  -7  -8   3   66.59   19.60
   7   8  -3   81.09   14.00
   7   8  -3   27.80   30.30
  -7  -7   3   27.90   13.10
   7   7  -3   32.10    7.50
   7   7  -3   55.79   30.00
  -7  -6   3   40.20   12.30
   7   6  -3   12.00   16.50
  -7  -5   3   58.49   13.00
   7   5  -3    8.40   17.90
   7   4  -3  229.18   50.09
  -7  -3   3  108.69   13.30
   7   3  -3   91.09   30.90
  -7  -2   3  633.14   40.40
   7   2  -3  546.35   66.49
  -7  -1   3   26.30    7.70
   7   1  -3   13.50   16.80
  -7   0   3    4.80    4.00
   7   0  -3    8.80   15.90
  -7   1   3  184.88   19.90
  -7   2   3   21.90    7.50
   7  -2  -3    5.50   23.90
  -7   3   3   72.69   15.40
   7  -3  -3   62.49   42.00
  -7   4   3    8.80    7.90
   7  -4  -3    9.10   33.20
  -6 -10   3    8.10   16.30
  -6 -10   3  -12.30    9.50
   6  10  -3  -35.80   18.40
   6  10  -3   29.90   12.90
  -6  -9   3   89.39   21.30
   6   9  -3   16.30   30.70
   6   9  -3   72.79   16.50
  -6  -8   3  131.89   25.50
   6   8  -3  140.79   18.40
   6   8  -3   80.79   36.10
  -6  -7   3 1041.80   74.79
   6   7  -3  874.71   58.79
   6   7  -3 1074.79   66.39
   6   7  -3 1020.00  109.89
  -6  -6   3    9.20    6.10
   6   6  -3   11.50    4.70
   6   6  -3   12.80   15.10
   6   6  -3    5.40    4.10
  -6  -5   3   88.69   17.20
   6   5  -3  125.29   35.50
  -6  -4   3  656.63   43.10
   6   4  -3  510.85   67.99
  -6  -3   3  137.79   27.00
  -6  -3   3  114.19   12.60
   6   3  -3  150.98   37.90
  -6  -2   3  363.36   46.30
  -6  -2   3  393.96   27.00
   6   2  -3  362.16   52.29
  -6  -1   3    6.30    8.90
  -6  -1   3   10.50    3.90
   6   1  -3   -3.10   10.40
  -6   0   3  400.86   34.20
  -6   0   3  415.66   29.70
  -6   0   3  403.06   41.00
   6   0  -3  461.15   52.99
  -6   1   3  510.75   36.10
  -6   1   3  504.85   44.00
   6  -1  -3  407.56  105.99
  -6   2   3  423.26   34.20
  -6   2   3  463.65   37.20
   6  -2  -3  239.08   78.19
  -6   3   3   52.59   12.50
  -6   3   3   57.69   14.50
   6  -3  -3   19.50   33.60
  -6   4   3   43.70   11.40
   6  -4  -3  -31.60   36.80
  -6   5   3  145.59   23.60
   6  -5  -3  148.59   64.99
  -6   6   3    0.70    8.80
   6  -6  -3  -26.20   48.40
  -5 -10   3    0.80    8.60
   5  10  -3   17.70    9.50
   5  10  -3  -19.80   23.90
  -5  -9   3   -1.40    8.40
  -5  -9   3   19.20   14.70
   5   9  -3    8.70    8.20
   5   9  -3   19.90   23.60
  -5  -8   3  125.89   25.40
   5   8  -3   81.69   17.50
   5   8  -3   75.29   32.60
  -5  -7   3   22.50    8.60
   5   7  -3    0.70    5.80
  -5  -6   3   -1.70    6.10
   5   6  -3   22.80   15.20
   5   6  -3   26.60    6.90
   5   6  -3    9.00    6.30
   5   5  -3   35.30   22.50
   5   5  -3   63.89    9.80
   5   5  -3   42.50    7.30
  -5  -4   3   34.80   13.90
  -5  -4   3   44.70   10.50
   5   4  -3   25.00   16.30
  -5  -3   3   20.20   11.20
  -5  -3   3   15.40    5.50
   5   3  -3  -13.30    9.10
  -5  -2   3 1499.55  107.39
  -5  -2   3 1499.45   81.19
  -5  -2   3 1456.15   96.89
   5   2  -3 1470.15  117.39
  -5  -1   3  343.97   38.10
  -5  -1   3  315.47   27.50
  -5  -1   3  276.67   20.30
   5   1  -3  264.87   41.60
  -5   0   3   48.40   10.60
  -5   0   3   42.20    8.10
  -5   0   3   46.20   14.80
   5   0  -3    5.40   21.80
   5   0  -3   32.90   16.40
  -5   1   3    1.90    2.70
  -5   1   3    2.60    6.50
  -5   1   3    9.80    6.10
   5  -1  -3   30.10   24.60
  -5   2   3 1205.38   74.79
  -5   2   3 1232.18   87.69
  -5   3   3  111.19   18.10
  -5   3   3  105.89   23.40
   5  -3  -3  110.59   52.59
  -5   4   3  300.47   29.70
  -5   4   3  263.67   38.20
   5  -5  -3   14.20   32.40
  -5   6   3   40.30   15.40
   5  -6  -3   33.60   16.20
   5  -6  -3   77.69   43.50
  -5   7   3   35.50   19.00
   5  -7  -3   -5.80   54.69
  -4 -10   3    8.70   11.60
   4  10  -3  -14.10    8.40
  -4  -9   3  224.28   46.80
  -4  -9   3  250.77   32.00
   4   9  -3  224.08   61.49
   4   9  -3  215.28   27.10
  -4  -8   3   64.19   18.30
   4   8  -3   69.99   16.80
   4   8  -3   72.39   33.20
  -4  -7   3 2332.57  137.79
   4   7  -3 2068.69  171.78
   4   7  -3 2055.29  125.79
  -4  -6   3   56.29   15.30
   4   6  -3   47.70   12.10
   4   6  -3   29.20   19.40
   4   6  -3   56.39   17.30
  -4  -5   3  522.05   44.50
   4   5  -3  438.56   61.09
   4   5  -3  538.45   36.30
   4   5  -3  496.85   34.50
  -4  -4   3   48.10   13.50
  -4  -4   3   26.60   28.90
  -4  -4   3   51.49   11.70
   4   4  -3   55.49    7.00
   4   4  -3   61.09   25.80
   4   4  -3   52.59    7.10
  -4  -3   3 3324.97  292.47
  -4  -3   3 3661.93  195.28
  -4  -3   3 3969.00  228.58
  -4  -3   3 3792.12  203.58
   4   3  -3 3724.33  234.68
  -4  -2   3   52.99   30.20
  -4  -2   3   31.60    9.80
  -4  -2   3   22.40   14.00
   4   2  -3   55.59   18.40
  -4  -1   3  899.81  118.19
  -4  -1   3 1042.40   55.59
  -4  -1   3 1152.08   82.29
  -4  -1   3 1010.30   64.89
   4   1  -3  842.52  113.09
   4   1  -3 1163.08   90.89
  -4   0   3   93.89   53.29
  -4   0   3   60.29   10.30
  -4   0   3   47.30   17.00
  -4   0   3   57.39    6.80
   4   0  -3   31.10   26.50
   4   0  -3   55.99   20.00
  -4   1   3  489.35   48.90
  -4   1   3  532.85   36.20
  -4   1   3  504.65   33.30
   4  -1  -3  368.06   73.39
  -4   2   3  145.69   29.50
  -4   2   3  193.98   17.10
  -4   2   3  174.38   18.10
   4  -2  -3   81.09   44.30
  -4   3   3  163.98   34.10
   4  -3  -3   61.39   37.60
   4  -3  -3  137.69   20.50
  -4   4   3    4.00   17.50
  -4   4   3   -7.20    3.20
   4  -4  -3   -0.50    7.30
   4  -4  -3   30.60   14.30
   4  -4  -3    2.60   26.70
  -4   5   3  277.27   30.10
  -4   5   3  238.58   49.60
   4  -5  -3  240.88   48.70
   4  -5  -3  238.78   76.39
   4  -5  -3  247.38   36.80
  -4   6   3   -1.60    8.00
   4  -6  -3   14.20   22.70
   4  -6  -3    8.30   12.80
  -4   7   3   29.90   12.70
   4  -7  -3   34.00   17.90
   4  -7  -3   18.90   39.80
  -3 -10   3   51.19   16.00
   3  10  -3   55.99   35.60
   3  10  -3   92.09   19.10
  -3  -9   3    2.10   18.20
  -3  -9   3   -0.60    8.30
   3   9  -3   -4.80   19.00
   3   9  -3    2.40    7.20
  -3  -8   3   18.50   17.50
  -3  -8   3    7.70    8.40
   3   8  -3   32.20   21.40
   3   8  -3   -1.20    5.40
  -3  -7   3   78.59   19.30
  -3  -7   3  108.49   26.90
   3   7  -3   87.19   19.10
  -3  -6   3  408.96   39.90
   3   6  -3  404.56   34.30
   3   6  -3  358.16   54.59
  -3  -5   3    2.30    5.70
   3   5  -3    1.80    3.90
   3   5  -3    5.60   11.70
   3   5  -3    7.10    4.40
  -3  -4   3  182.28   21.80
  -3  -4   3  155.48   18.30
   3   4  -3  121.29   32.50
   3   4  -3  106.89   12.50
   3   4  -3  135.19   14.00
  -3  -3   3  108.19   35.50
  -3  -3   3  117.59   14.40
  -3  -3   3   66.59   21.50
  -3  -3   3   92.09   14.60
   3   3  -3  108.39   28.50
  -3  -2   3   39.50    5.30
  -3  -2   3   33.10   25.40
  -3  -2   3   24.30   10.90
  -3  -2   3   34.80    6.80
   3   2  -3   42.70   17.30
  -3  -1   3  469.25   47.30
  -3  -1   3  519.85   75.19
   3   1  -3  496.75   52.39
   3   1  -3  423.36   68.69
  -3   0   3 1918.51  127.39
   3   0  -3 1926.41  133.29
  -3   1   3  764.42   45.90
  -3   1   3  744.33   65.69
  -3   1   3  684.03   89.59
  -3   2   3  554.04   39.60
  -3   2   3  615.24   37.20
  -3   2   3  537.85   57.59
   3  -2  -3  408.96   77.19
  -3   3   3  960.00   64.39
  -3   3   3  881.41   87.69
  -3   3   3 1018.50   59.99
   3  -3  -3  994.70   66.59
   3  -3  -3  715.23  113.09
   3  -3  -3  983.10   63.69
  -3   4   3   53.49   14.30
  -3   4   3   86.09   44.40
   3  -4  -3  101.59   47.20
   3  -4  -3   65.39   16.70
   3  -4  -3   91.89   19.60
  -3   5   3  588.34   47.90
   3  -5  -3  501.75   53.79
   3  -5  -3  329.57   98.99
   3  -5  -3  483.05   46.50
  -3   6   3  232.38   35.40
   3  -6  -3  149.29   69.89
   3  -6  -3  183.18   33.50
  -3   7   3  161.18   30.60
   3  -7  -3   83.99   62.59
   3  -7  -3  160.18   29.50
  -3   8   3   45.00   17.80
   3  -8  -3   62.89   19.40
   3  -8  -3    8.50   43.40
  -2 -10   3   89.89   22.60
   2  10  -3   85.29   21.10
   2  10  -3   18.20   28.70
  -2  -9   3   19.40   19.80
  -2  -9   3   -7.80    5.70
   2   9  -3    2.40   17.70
   2   9  -3  -13.40    6.90
  -2  -8   3  196.38   44.30
  -2  -8   3  173.18   31.80
   2   8  -3  220.68   30.00
   2   8  -3  129.29   36.50
  -2  -7   3   89.69   29.40
  -2  -7   3   87.49   19.90
   2   7  -3  102.29   20.10
   2   7  -3   70.79   29.30
  -2  -6   3   -1.60    6.80
  -2  -6   3   10.30   11.90
   2   6  -3   10.70   14.10
   2   6  -3   12.90    7.30
  -2  -5   3  243.58   28.30
   2   5  -3  320.77   33.60
   2   5  -3  234.58   23.50
   2   5  -3  203.58   44.40
  -2  -4   3   46.70   11.60
  -2  -4   3   30.00    9.70
   2   4  -3   36.70   17.30
   2   4  -3   54.49   13.40
   2   4  -3   57.09   11.00
  -2  -3   3 1567.04  106.09
  -2  -3   3 1432.76   89.39
  -2  -3   3 1502.85  113.39
  -2  -3   3 1499.75   85.59
   2   3  -3 1506.05   85.39
   2   3  -3 1468.85   82.09
   2   3  -3 1458.25  112.69
  -2  -2   3  286.67   34.20
  -2  -2   3  229.88   41.20
  -2  -2   3  282.67   19.20
  -2  -2   3  263.57   21.90
   2   2  -3  338.97   40.80
  -2  -1   3  154.68   40.30
  -2  -1   3  237.28   29.60
   2   1  -3  150.18   30.80
   2   1  -3  143.99   37.80
  -2   0   3    7.50    6.20
  -2   0   3    2.50    7.20
   2   0  -3   10.30   11.70
  -2   1   3  620.74   32.90
  -2   1   3  499.05   38.80
  -2   1   3  585.14   57.39
  -2   1   3  618.24   70.69
   2  -1  -3  425.86   66.89
  -2   2   3   33.20   17.20
  -2   2   3   36.00    6.90
  -2   2   3   24.30    8.10
  -2   2   3   19.60   14.60
   2  -2  -3   14.70   18.70
  -2   3   3   -2.40    9.30
  -2   3   3   30.30   11.30
  -2   3   3    1.10    3.40
   2  -3  -3   11.70    5.50
   2  -3  -3    6.50   16.10
  -2   4   3    6.10    5.70
   2  -4  -3    2.70   18.30
   2  -4  -3   -2.70   11.20
  -2   5   3  112.29   22.70
   2  -5  -3   99.19   55.39
   2  -5  -3  148.99   20.00
  -2   6   3    4.00    7.00
   2  -6  -3    4.10    6.00
   2  -6  -3   30.90   24.50
  -2   7   3   57.29   16.30
   2  -7  -3   49.80   50.29
  -2   8   3   34.40   15.00
   2  -8  -3   30.90   40.70
  -2   9   3  184.88   34.00
   2  -9  -3   55.19   53.19
   2  -9  -3  182.48   35.00
  -1 -10   3  168.38   31.40
   1  10  -3  149.49   28.90
   1  10  -3  190.28   53.99
  -1  -9   3    9.90   10.40
  -1  -9   3  -24.60   18.90
   1   9  -3   50.09   23.70
   1   9  -3   24.10   12.50
  -1  -8   3   -1.10   20.20
  -1  -8   3   34.40   13.60
   1   8  -3   62.39   28.90
   1   8  -3   28.70   10.60
  -1  -7   3  176.68   38.90
  -1  -7   3  110.59   24.20
   1   7  -3   85.19   34.00
   1   7  -3  120.59   23.50
  -1  -6   3 2013.20  130.19
   1   6  -3 2167.28  127.29
   1   6  -3 2161.78  159.08
  -1  -5   3   40.00   23.50
  -1  -5   3   45.90   13.40
   1   5  -3   27.80    9.80
   1   5  -3   37.60   20.40
  -1  -4   3 2141.69  120.99
  -1  -4   3 1930.41  117.69
   1   4  -3 2272.17  126.49
   1   4  -3 1985.20  116.29
   1   4  -3 1898.51  141.69
  -1  -3   3   45.40   10.10
  -1  -3   3   54.19   11.10
  -1  -3   3   46.90   15.30
   1   3  -3   50.69    9.90
   1   3  -3   36.70   16.60
   1   3  -3   51.79   12.20
  -1  -2   3 7328.07  335.57
  -1  -2   3 6297.07  331.57
  -1  -2   3 6687.23  355.76
   1   2  -3 6238.18  359.26
   1   2  -3 6021.80  329.87
   1   2  -3 6399.16  336.87
  -1  -1   3   23.50   10.80
  -1  -1   3   35.10    4.80
  -1  -1   3   26.80    3.40
  -1  -1   3   27.10   10.10
   1   1  -3   31.80   12.60
   1   1  -3   26.20   10.90
  -1   0   3 6460.15  348.17
  -1   0   3 6975.70  351.46
   1   0  -3 6165.78  349.67
   1   0  -3 5430.36  351.96
  -1   1   3   14.90    7.30
  -1   1   3    8.50    3.50
  -1   1   3   21.00   13.90
  -1   1   3   13.80    9.70
   1  -1  -3    5.70   11.20
  -1   2   3  606.54   63.29
  -1   2   3  508.35   45.30
  -1   2   3  541.15   34.60
   1  -2  -3  494.45   75.29
   1  -2  -3  475.45   33.00
   1  -2  -3  476.95   42.30
  -1   3   3  176.58   31.00
  -1   3   3  194.58   36.10
  -1   3   3  162.98   18.00
   1  -3  -3  143.29   51.89
   1  -3  -3  132.49   27.50
   1  -3  -3  160.48   17.60
  -1   4   3 5108.39  276.17
   1  -4  -3 4945.71  263.17
   1  -4  -3 4440.66  353.06
  -1   5   3  367.36   41.00
   1  -5  -3  410.56   37.00
   1  -5  -3  295.97   82.99
  -1   6   3   -0.50    5.10
   1  -6  -3    1.50    5.50
   1  -6  -3   14.00   21.10
  -1   7   3   77.69   24.60
   1  -7  -3  110.69   21.70
   1  -7  -3   52.09   46.60
  -1   8   3  106.99   27.20
   1  -8  -3   94.99   18.50
   1  -8  -3   76.19   61.59
  -1   9   3  125.29   38.20
   1  -9  -3   60.29   16.60
   1  -9  -3  114.49   60.89
   0  -9   3    8.90    9.10
   0  -9   3    4.80   23.10
   0   9  -3   16.90   29.80
   0   9  -3   31.00   13.90
   0  -8   3   34.20   25.00
   0  -8   3   61.19   17.50
   0   8  -3  110.79   24.50
   0   8  -3   52.79   26.70
   0  -7   3  591.54   56.39
   0   7  -3  546.65   69.29
   0   7  -3  586.64   50.89
   0  -6   3   89.09   25.60
   0  -6   3   72.79   17.80
   0   6  -3   98.89   30.60
   0   6  -3   87.49   18.90
   0  -5   3  179.38   23.70
   0  -5   3  148.19   34.50
   0   5  -3  141.69   32.90
   0   5  -3  203.98   23.20
   0  -4   3  169.28   34.70
   0  -4   3  244.28   25.30
   0   4  -3  207.68   22.20
   0   4  -3  155.08   33.90
   0   4  -3  271.07   25.60
   0  -3   3  345.87   30.10
   0  -3   3  384.76   29.80
   0  -3   3  360.56   38.00
   0   3  -3  373.56   29.10
   0   3  -3  391.76   43.90
   0   3  -3  403.46   31.00
   0  -2   3   38.80    8.40
   0  -2   3   21.70    8.90
   0  -2   3   48.30    9.00
   0   2  -3   33.80    7.10
   0   2  -3   19.40   11.70
   0   2  -3   23.80    5.70
   0  -1   3 1270.17   74.49
   0  -1   3 1369.56   72.29
   0  -1   3 1347.17   90.89
   0   1  -3 1323.07   72.59
   0   0   3   25.40    5.90
   0   0   3   39.60   14.60
   0   0  -3   22.20    4.00
   0   0  -3   37.30   13.20
   0   0  -3   17.90    8.00
   0   0  -3   25.90    5.40
   0   1   3 1384.46   77.49
   0   1   3 1347.47   83.29
   0  -1  -3 1285.37   76.39
   0  -1  -3 1425.96   82.59
   0  -1  -3 1476.25  106.59
   0   2   3   55.29   18.00
   0   2   3   76.69   13.80
   0  -2  -3   67.19   12.00
   0  -2  -3   43.10   15.70
   0  -2  -3   59.29   22.80
   0   3   3  264.07   26.10
   0   3   3  255.47   41.40
   0  -3  -3  292.97   43.80
   0  -3  -3  211.48   23.60
   0  -3  -3  275.47   49.60
   0   4   3   74.99   22.50
   0   4   3   85.59   17.20
   0  -4  -3   60.59   21.10
   0  -4  -3   44.60   27.20
   0  -4  -3   78.89   16.50
   0   5   3   37.40   15.30
   0  -5  -3    9.60   18.00
   0  -5  -3   18.70    8.60
   0   6   3  194.18   38.60
   0  -6  -3  202.08   65.69
   0  -6  -3  170.78   23.50
   0   7   3   31.00   14.60
   0  -7  -3   13.20    9.10
   0  -7  -3   25.30   30.40
   0   8   3  180.38   36.90
   0  -8  -3  185.68   71.99
   0  -8  -3  175.88   30.70
   0   9   3  210.08   39.20
   0  -9  -3  166.88   28.50
   0  -9  -3  201.28   72.09
  -1   9  -3   94.39   23.20
  -1   9  -3  122.09   49.00
   1  -8   3  167.08   32.60
  -1   8  -3  210.28   49.99
  -1   8  -3  250.97   32.20
   1  -7   3  224.08   54.69
   1  -7   3  298.27   37.20
  -1   7  -3  313.57   49.70
  -1   7  -3  334.27   35.50
   1  -6   3  142.49   28.60
   1  -6   3  144.19   45.20
  -1   6  -3  172.88   23.20
  -1   6  -3  209.48   44.90
   1  -5   3  518.35   45.40
   1  -5   3  455.15   65.09
  -1   5  -3  573.44   58.99
  -1   5  -3  468.75   41.40
   1  -4   3  267.77   29.20
   1  -4   3  291.37   51.49
  -1   4  -3  303.57   28.80
  -1   4  -3  357.16   38.20
  -1   4  -3  313.07   39.20
   1  -3   3  683.23   47.20
   1  -3   3  689.73   49.10
  -1   3  -3  688.03   46.90
  -1   3  -3  699.23   47.50
  -1   3  -3  682.23   59.79
  -1   3  -3  678.33   60.19
   1  -2   3 2761.12  158.58
   1  -2   3 2801.32  157.78
   1  -2   3 2685.33  149.88
  -1   2  -3 2855.11  150.08
  -1   2  -3 2821.62  150.28
  -1   2  -3 2731.73  165.38
   1  -1   3  125.29   12.20
   1  -1   3  116.19   18.00
   1  -1   3  121.39   15.50
  -1   1  -3  145.19   13.30
  -1   1  -3  102.79   22.50
  -1   1  -3  115.99   11.70
   1   0   3 1048.40   59.99
   1   0   3 1047.30   65.69
   1   0   3 1226.48   85.59
  -1   0  -3 1060.29   59.59
  -1   0  -3  990.20   64.49
   1   1   3    9.40    3.80
   1   1   3   14.70    8.50
  -1  -1  -3   11.80    3.80
  -1  -1  -3   15.50    6.80
   1   2   3 1944.41  135.59
   1   2   3 2167.48  120.99
  -1  -2  -3 2221.88  120.19
  -1  -2  -3 2324.57  140.19
   1   3   3  193.58   38.70
   1   3   3  245.08   26.30
  -1  -3  -3  320.47   42.10
  -1  -3  -3  273.07   26.00
   1   4   3 4991.40  293.27
   1   4   3 5155.98  275.47
  -1  -4  -3 5435.66  311.57
  -1  -4  -3 4500.85  287.87
  -1  -4  -3 4926.01  271.37
   1   5   3   23.50   13.50
  -1  -5  -3   13.70   13.20
  -1  -5  -3   28.30   11.10
   1   6   3    1.30    8.20
  -1  -6  -3   -2.90    9.30
   1   7   3  177.78   35.70
  -1  -7  -3  100.69   20.00
  -1  -7  -3  186.58   55.49
   1   8   3  572.44   59.59
  -1  -8  -3  457.15   43.50
  -1  -8  -3  466.05   79.69
   1   9   3   63.09   25.60
  -1  -9  -3   16.90   27.80
  -1  -9  -3    7.80    7.70
   1  10   3   12.20   11.80
  -1 -10  -3    6.70    9.60
  -1 -10  -3  -44.90   34.20
   2  -9   3   62.29   24.40
  -2   9  -3   48.90   17.50
  -2   9  -3   50.99   29.40
   2  -8   3  -18.20   23.50
   2  -8   3    0.60   17.20
  -2   8  -3   30.10   21.40
  -2   8  -3    6.30   10.20
   2  -7   3   65.69   56.09
   2  -7   3   78.29   26.30
  -2   7  -3   91.99   20.10
  -2   7  -3   96.79   31.20
   2  -6   3   51.69   18.90
   2  -6   3   27.20   23.80
  -2   6  -3   37.80   18.70
  -2   6  -3   34.00   10.70
  -2   6  -3   82.09   25.40
   2  -5   3   40.30   15.50
  -2   5  -3   35.00   15.10
  -2   5  -3   40.80   12.10
   2  -4   3   24.80   12.50
   2  -4   3   17.40   24.90
  -2   4  -3   14.90    7.80
  -2   4  -3   36.00   18.40
  -2   4  -3   11.40   10.60
   2  -3   3   32.40   12.10
  -2   3  -3   36.90   13.10
  -2   3  -3   21.70   18.10
  -2   3  -3   34.60    9.00
   2  -2   3  435.36   40.60
   2  -2   3  444.56   33.70
   2  -2   3  477.05   35.10
  -2   2  -3  423.66   58.19
  -2   2  -3  484.55   34.70
  -2   2  -3  469.55   34.00
  -2   2  -3  451.25   40.80
   2  -1   3  150.48   24.00
   2  -1   3  139.69   19.40
   2  -1   3  126.89   13.80
  -2   1  -3  142.89   14.30
  -2   1  -3  115.29   23.00
  -2   1  -3  131.89   16.60
   2   0   3    1.50    5.10
   2   0   3    4.10    4.40
   2   0   3    3.00    2.70
  -2   0  -3    2.90    2.80
  -2   0  -3    4.70    4.60
   2   1   3 7843.72  423.86
   2   1   3 8535.45  440.86
  -2  -1  -3 8623.54  440.36
  -2  -1  -3 8268.57  423.96
   2   2   3  650.33   59.99
   2   2   3  608.84   41.40
  -2  -2  -3  644.84   41.50
  -2  -2  -3  661.03   60.09
   2   3   3  162.28   18.80
   2   3   3  154.38   33.40
  -2  -3  -3  165.78   18.50
  -2  -3  -3  190.38   36.50
   2   4   3    8.10    7.00
   2   4   3   17.80   10.20
  -2  -4  -3   19.70    8.70
  -2  -4  -3   17.20   15.30
   2   5   3 3057.39  192.68
  -2  -5  -3 2792.42  167.98
   2   6   3  180.58   37.80
  -2  -6  -3  236.08   43.00
  -2  -6  -3  225.38   27.30
   2   7   3  692.53   71.89
  -2  -7  -3  718.33   60.09
  -2  -7  -3  872.31   92.99
   2   8   3  173.68   36.70
  -2  -8  -3  178.78   24.70
  -2  -8  -3  181.78   55.69
   2   9   3   38.10   21.30
  -2  -9  -3   72.29   40.70
  -2  -9  -3   77.99   19.00
   2  10   3   53.19   21.20
  -2 -10  -3   53.49   37.10
   3  -8   3   46.20   23.40
  -3   8  -3   56.29   18.50
   3  -7   3   17.00   17.00
  -3   7  -3    8.00   16.10
  -3   7  -3   22.40    9.90
   3  -6   3   40.80   17.80
  -3   6  -3   15.70    7.60
  -3   6  -3   13.30   13.00
   3  -5   3   85.19   26.00
  -3   5  -3  109.39   20.40
  -3   5  -3   82.89   21.20
   3  -4   3 2851.01  181.18
  -3   4  -3 3020.20  166.38
  -3   4  -3 2922.71  171.08
  -3   4  -3 2816.02  208.28
   3  -3   3  363.06   40.30
  -3   3  -3  395.16   34.60
  -3   3  -3  347.47   31.20
  -3   3  -3  329.97   58.09
   3  -2   3   86.49   15.00
   3  -2   3  109.59   23.50
  -3   2  -3  142.99   15.80
  -3   2  -3   48.80   30.30
   3  -1   3  664.23   53.99
   3  -1   3  650.23   42.70
   3  -1   3  582.44   45.60
  -3   1  -3  622.84   86.29
  -3   1  -3  714.13   51.59
  -3   1  -3  662.73   44.00
   3   0   3 3615.14  207.08
   3   0   3 3529.75  193.08
  -3   0  -3 3775.52  193.48
   3   1   3  358.16   38.40
   3   1   3  350.76   26.60
  -3  -1  -3  330.27   25.90
  -3  -1  -3  328.87   36.10
   3   2   3  337.77   27.80
   3   2   3  407.16   47.40
  -3  -2  -3  394.26   28.70
  -3  -2  -3  400.26   45.40
   3   3   3   14.50    6.10
   3   3   3   33.40   19.70
  -3  -3  -3   14.30    6.00
  -3  -3  -3  -15.00   12.80
   3   4   3   14.90   11.50
   3   4   3    9.60    8.20
  -3  -4  -3    8.10    5.00
   3   5   3  106.79   30.70
  -3  -5  -3   66.09   15.70
   3   6   3  280.37   49.80
  -3  -6  -3  327.17   35.00
   3   7   3  129.39   32.70
  -3  -7  -3  194.28   45.40
  -3  -7  -3  136.69   24.40
   3   8   3  454.85   56.09
  -3  -8  -3  508.55   68.69
  -3  -8  -3  468.65   44.90
   3   9   3   44.30   18.60
  -3  -9  -3   31.90   12.90
  -3  -9  -3   42.10   29.50
   3  10   3   38.90   20.20
  -3 -10  -3   53.79   32.20
  -3 -10  -3   47.50   18.40
   4  -7   3    6.70   17.70
  -4   7  -3   18.00   12.00
   4  -6   3  -19.40   15.60
  -4   6  -3   -4.50    6.50
  -4   6  -3    1.40   10.00
   4  -5   3  343.37   55.39
  -4   5  -3  261.17   26.00
  -4   5  -3  263.87   29.30
   4  -4   3   59.29   20.00
  -4   4  -3  106.39   20.10
   4  -3   3    3.20    9.20
  -4   3  -3   -3.10    3.00
   4  -2   3  224.38   37.00
  -4   2  -3  200.68   21.40
   4  -1   3   15.70    9.50
   4  -1   3   14.70    6.00
  -4   1  -3    7.60    4.60
  -4   1  -3   16.80   19.60
   4   0   3  462.85   47.40
   4   0   3  577.84   37.90
  -4   0  -3  506.35   37.00
  -4   0  -3  481.35   45.50
   4   1   3 1906.51  127.89
   4   1   3 1923.01  108.09
  -4  -1  -3 1882.41  107.59
  -4  -1  -3 1939.21  124.59
   4   2   3  681.93   67.59
   4   2   3  661.83   47.00
  -4  -2  -3  742.43   66.29
  -4  -2  -3  808.72   49.20
   4   3   3   91.79   15.60
   4   3   3   84.19   29.50
  -4  -3  -3   97.09   16.10
   4   4   3   -1.40   11.60
  -4  -4  -3    4.60    5.10
   4   5   3 2644.34  184.18
  -4  -5  -3 2815.82  159.38
   4   6   3   48.20   21.70
  -4  -6  -3   62.29   16.10
   4   7   3  632.14   68.49
  -4  -7  -3  686.73   56.69
   4   8   3    2.60    9.30
  -4  -8  -3    7.10   11.80
   4   9   3  579.84   65.29
  -4  -9  -3  625.84   77.99
  -4  -9  -3  552.34   51.49
  -4 -10  -3   -0.50   17.70
  -4 -10  -3   -0.80    8.00
   5  -7   3   81.39   33.60
  -5   7  -3  155.18   27.80
   5  -6   3  -19.40   15.90
  -5   6  -3   21.50   10.50
   5  -5   3  225.38   41.80
  -5   5  -3  237.48   27.60
   5  -4   3  170.98   36.30
  -5   4  -3  201.48   24.10
   5  -3   3   98.99   26.10
  -5   3  -3   66.29   14.40
  -5   2  -3   85.09   15.60
   5  -1   3   42.90   16.90
  -5   1  -3   17.20    6.50
   5   0   3 1236.68   88.49
   5   0   3 1285.87   78.99
   5   0   3 1370.26  115.99
   5   0   3 1318.97   75.99
  -5   0  -3 1369.96   80.29
   5   1   3   13.00    5.80
   5   1   3  -11.60    8.90
  -5  -1  -3    8.60    4.60
   5   2   3  114.09   14.50
   5   2   3  102.89   28.10
  -5  -2  -3  102.39   14.10
  -5  -3  -3  311.57   27.10
   5   4   3  173.58   40.40
  -5  -4  -3  128.39   16.90
   5   5   3  108.09   29.80
  -5  -5  -3  116.69   20.10
   5   6   3  158.98   36.80
  -5  -6  -3  119.69   21.90
   5   7   3    3.80   12.90
  -5  -7  -3   -1.50    7.40
   5   8   3  103.89   29.50
  -5  -8  -3   84.29   19.10
   5   9   3   39.20   20.00
  -5  -9  -3   80.19   28.40
  -5  -9  -3   86.89   21.10
  -5 -10  -3   -0.80   17.00
  -5 -10  -3    8.50    9.90
   6  -6   3  -20.80   16.90
  -6   6  -3   27.40   13.00
   6  -5   3   47.80   21.80
   6  -4   3   13.50   12.90
  -6   4  -3   -4.40    4.80
   6  -3   3  307.67   41.10
  -6   3  -3  331.47   31.80
   6  -2   3   16.30   15.80
  -6   2  -3   16.00    7.50
   6  -1   3   50.49   20.30
  -6   1  -3   70.89   14.40
   6   0   3  121.29   29.50
  -6   0  -3  169.28   18.70
   6   1   3  218.38   25.50
   6   1   3  287.57   48.10
  -6  -1  -3  262.67   24.20
   6   2   3  363.06   49.99
  -6  -2  -3  387.46   31.70
   6   3   3  777.02   79.69
  -6  -3  -3  846.82   55.89
   6   4   3    0.20   12.30
  -6  -4  -3   19.60    6.70
   6   5   3   10.40   12.50
  -6  -5  -3   -2.10    4.90
   6   6   3  389.66   51.39
  -6  -6  -3  407.06   38.10
   6   7   3  293.77   52.69
  -6  -7  -3  307.57   34.40
   6   8   3   18.80   16.20
  -6  -8  -3   42.90   14.90
   6   9   3    2.90   10.50
  -6  -9  -3   11.30   10.90
   6  10   3  -26.80   18.10
   6  10   3   13.80   22.50
  -6 -10  -3    1.90   10.00
  -6 -10  -3   10.10   15.60
   7  -4   3   -8.80   17.60
  -7   4  -3   29.60    9.50
   7  -3   3   91.89   29.00
  -7   3  -3  156.98   20.70
   7  -2   3  149.49   36.10
  -7   2  -3  176.58   21.00
   7  -1   3   19.70   16.60
  -7   1  -3   15.20    8.10
   7   0   3  125.69   32.80
  -7   0  -3   98.79   17.20
   7   1   3  331.77   53.89
   7   1   3  333.27   33.10
  -7  -1  -3  341.27   30.10
   7   2   3  532.05   62.09
   7   2   3  532.85   49.90
  -7  -2  -3  543.55   41.00
   7   3   3  229.58   47.00
   7   3   3  243.88   34.10
  -7  -3  -3  184.18   20.90
   7   4   3   18.20   14.90
  -7  -4  -3    3.30    4.60
   7   5   3   19.80   14.00
  -7  -5  -3    7.00    4.80
   7   6   3  231.78   43.80
  -7  -6  -3  227.78   27.00
  -7  -7  -3   58.89   17.40
   7   8   3  118.49   28.00
   7   8   3   69.19   30.50
  -7  -8  -3   96.49   22.50
   7   9   3   68.69   21.50
  -8   3  -3  158.48   25.40
   8  -2   3  323.07   53.59
  -8   2  -3  346.87   32.90
   8  -1   3  -19.60   16.60
  -8   1  -3   16.90    6.60
   8   0   3   80.39   27.30
  -8   0  -3   57.89   13.10
   8   1   3  307.37   54.89
  -8  -1  -3  398.06   36.80
   8   2   3   81.69   27.80
   8   2   3   76.59   20.80
  -8  -2  -3   92.89   17.00
   8   3   3  296.47   51.99
   8   3   3  296.97   40.40
  -8  -3  -3  298.77   28.60
   8   4   3   60.39   25.20
   8   4   3   57.79   22.40
  -8  -4  -3   86.99   22.80
   8   5   3  184.58   35.80
   8   5   3  184.08   42.10
  -8  -5  -3  218.68   24.30
   8   6   3   38.80   19.60
   8   6   3   70.59   23.30
   8   7   3  476.95   52.29
   8   7   3  373.16   59.69
  -8  -7  -3  557.24   46.50
   8   8   3   34.20   25.90
   8   8   3    0.40   11.80
  -8  -8  -3   32.80   13.90
   8   9   3   19.20   17.30
   8   9   3   17.70   22.70
  -8  -9  -3   21.60   11.50
  -9   2  -3    5.50    5.80
   9  -1   3    2.20   25.70
  -9   1  -3   15.40    8.60
   9   0   3  -23.90   21.30
  -9   0  -3   18.10    8.00
   9   1   3   49.50   26.50
  -9  -1  -3   52.89   13.90
   9   2   3   69.89   20.40
   9   2   3   38.00   22.70
  -9  -2  -3   46.40   11.70
   9   3   3   51.69   21.90
   9   3   3   28.90   19.30
  -9  -3  -3   67.39   13.30
   9   4   3   88.19   28.80
   9   4   3  103.59   29.30
  -9  -4  -3  103.29   18.80
   9   5   3   21.00   21.20
   9   5   3   56.99   20.40
  -9  -5  -3   39.50    9.50
   9   6   3    4.70   13.70
   9   6   3    3.10   14.60
  -9  -6  -3   -5.10    6.00
   9   7   3   36.40   22.20
   9   7   3   29.10   17.70
  -9  -7  -3   43.30   13.50
   9   8   3   -5.20   13.80
  -9  -8  -3   -3.00    9.40
 -10  -1  -3   21.30    8.40
 -10  -2  -3  305.67   29.80
  10   3   3   28.90   20.10
 -10  -3  -3    8.40    6.90
  10   4   3   89.69   23.60
  10   4   3   82.39   30.10
 -10  -4  -3   83.69   15.40
  10   5   3  -29.20   16.70
  10   5   3    7.00   15.90
 -10  -5  -3   12.90    7.50
  10   6   3   -8.50   13.60
  10   6   3   11.10   20.20
 -10  -6   4    3.20    7.80
  10   6  -4  -25.70   22.70
  10   5  -4   50.69   37.40
 -10  -4   4  110.39   18.20
  10   4  -4   68.69   34.60
 -10  -3   4  428.56   32.50
  10   3  -4  249.97   58.69
 -10  -2   4    7.30    7.00
 -10  -1   4   34.70   10.30
   9   7  -4   55.69   25.80
  -9  -6   4    7.60    7.20
   9   6  -4  -12.30   17.70
  -9  -5   4   14.10    7.30
   9   5  -4   13.90   24.30
  -9  -4   4    5.30    6.30
   9   4  -4   24.20   23.80
  -9  -3   4   12.20    6.10
   9   3  -4   -8.40   22.20
  -9  -2   4    7.40    5.70
   9   2  -4  -21.40   20.90
  -9  -1   4  128.59   15.70
   9   1  -4  103.19   37.40
  -9   0   4   16.50    7.70
  -9   1   4    2.60    5.40
  -8  -8   4  367.76   39.70
   8   8  -4  325.57   73.59
  -8  -7   4   31.00   14.50
   8   7  -4   16.00   26.00
  -8  -6   4  571.74   47.40
   8   6  -4  573.24   79.49
  -8  -5   4   19.10    8.00
   8   5  -4   21.40   23.80
  -8  -4   4   53.09   11.40
   8   4  -4   39.00   27.10
   8   3  -4  423.66   61.39
  -8  -2   4  349.17   27.70
   8   2  -4  403.86   58.59
   8   1  -4   74.19   32.20
  -8   0   4   30.80    8.40
  -8   1   4  343.27   28.90
  -8   2   4    0.10    5.30
  -8   3   4   49.60   11.90
  -7  -9   4   19.10    9.70
   7   9  -4   -4.80   19.90
  -7  -8   4   -2.80    7.40
   7   8  -4    9.60   20.00
  -7  -7   4   82.49   18.40
   7   7  -4  121.19   42.10
  -7  -6   4  246.38   27.70
   7   6  -4  247.38   56.59
  -7  -5   4   73.49   15.50
   7   5  -4   93.29   31.50
   7   4  -4   21.80   16.40
  -7  -3   4   32.90    7.40
   7   3  -4   51.69   20.20
  -7  -2   4  498.75   43.30
  -7  -2   4  533.55   34.40
   7   2  -4  468.55   62.59
  -7  -1   4   60.79   10.20
  -7  -1   4   64.49   13.80
   7   1  -4   51.29   28.00
  -7   0   4  277.87   33.80
  -7   0   4  272.77   22.30
   7   0  -4  223.78   47.80
  -7   1   4   10.40    6.30
  -7   1   4    7.00    9.00
   7  -1  -4   15.70   19.30
  -7   2   4   89.79   19.20
  -7   2   4  124.89   16.60
   7  -2  -4   46.70   48.00
  -7   3   4  254.77   26.30
   7  -3  -4  156.48   73.99
  -7   4   4  170.78   25.70
   7  -4  -4   11.90   47.10
  -6 -10   4   -1.70   10.20
   6  10  -4    2.90    9.80
   6  10  -4   51.09   25.50
  -6  -9   4   -5.00    8.80
   6   9  -4   17.00   24.30
   6   9  -4   11.40    8.20
  -6  -8   4  278.17   30.80
   6   8  -4  196.28   60.59
   6   8  -4  212.78   22.00
  -6  -7   4   34.60   12.50
   6   7  -4   53.59   25.10
   6   7  -4   32.30    8.10
  -6  -6   4  525.95   46.90
   6   6  -4  645.14   77.99
  -6  -5   4   19.40    9.50
   6   5  -4   49.30   21.40
  -6  -4   4  190.98   40.70
  -6  -4   4  265.27   23.20
   6   4  -4  262.57   53.89
  -6  -3   4   -0.10    3.00
   6   3  -4    6.10    8.90
  -6  -2   4 1028.90   75.49
  -6  -2   4 1192.88   63.99
   6   2  -4 1113.09  104.59
  -6  -1   4  109.29   10.80
  -6  -1   4   78.19   16.30
  -6  -1   4  121.99   27.00
   6   1  -4   96.89   31.60
  -6   0   4   17.50    5.40
  -6   0   4   15.80   13.10
   6   0  -4   -7.40   27.00
   6   0  -4   11.70   17.40
  -6   1   4   43.30   16.30
   6  -1  -4   -1.70   30.40
  -6   2   4  374.96   30.80
  -6   2   4  331.37   39.50
  -6   3   4   -3.90   11.20
  -6   3   4   -1.20    6.00
   6  -3  -4   10.60   24.20
  -6   4   4   33.90   12.60
   6  -4  -4   75.89   47.10
  -6   5   4   -3.20    7.70
   6  -5  -4  -25.70   33.60
  -5 -10   4    4.30   10.00
   5  10  -4    8.30   28.80
   5  10  -4   26.60   12.40
  -5  -9   4  172.28   31.40
  -5  -9   4  147.99   27.10
   5   9  -4  128.79   21.70
   5   9  -4  108.59   43.90
  -5  -8   4   24.60   10.10
   5   8  -4    2.30    5.50
   5   8  -4   -5.60   14.00
  -5  -7   4  170.38   27.60
   5   7  -4  128.19   41.30
   5   7  -4  132.29   16.20
  -5  -6   4  199.98   24.30
  -5  -6   4  134.59   53.09
   5   6  -4  234.28   53.89
   5   6  -4  169.48   16.10
   5   6  -4  198.28   17.50
  -5  -5   4 1567.84  101.59
  -5  -5   4 1547.35  157.58
   5   5  -4 1753.22  141.69
  -5  -4   4    0.10    4.00
  -5  -4   4    8.70    7.20
   5   4  -4    1.20    8.00
  -5  -3   4  217.18   25.70
  -5  -3   4  236.58   18.50
   5   3  -4  195.28   44.10
  -5  -2   4  487.85   68.49
  -5  -2   4  651.03   36.30
  -5  -2   4  575.14   46.20
   5   2  -4  668.43   72.59
  -5  -1   4 1118.29   69.99
  -5  -1   4 1100.39   89.29
  -5  -1   4 1212.78   62.99
   5   1  -4 1265.67  104.69
   5   1  -4  975.60  131.49
  -5   0   4  359.86   29.40
  -5   0   4  430.36   27.00
   5   0  -4  447.46   54.89
   5   0  -4  425.46   81.79
  -5   1   4  474.15   32.20
  -5   1   4  437.26   49.50
  -5   1   4  459.55   34.70
   5  -1  -4  355.66   93.59
  -5   2   4  656.73   62.19
  -5   2   4  589.94   42.70
  -5   2   4  655.33   42.80
   5  -2  -4  386.36  102.79
  -5   3   4  -15.40   12.20
  -5   3   4    1.70    5.20
   5  -3  -4    9.90   25.80
  -5   4   4  888.91   61.89
  -5   4   4  777.52   92.19
  -5   5   4  113.49   23.70
   5  -5  -4   72.59   50.09
  -5   6   4  150.18   24.90
   5  -6  -4   93.29   58.69
  -4 -10   4  300.47   35.90
   4  10  -4  305.27   76.39
   4  10  -4  250.57   30.70
  -4  -9   4   30.10   23.30
  -4  -9   4   55.89   18.00
   4   9  -4   64.89   32.80
   4   9  -4   77.79   16.30
  -4  -8   4   23.30   11.20
  -4  -8   4   13.70   13.00
   4   8  -4  -21.80   18.00
   4   8  -4   12.80    8.80
  -4  -7   4    8.40    6.60
   4   7  -4  -16.60   10.30
   4   7  -4    5.00    5.00
  -4  -6   4  212.68   27.90
  -4  -6   4  241.28   56.49
   4   6  -4  249.88   54.39
   4   6  -4  278.57   24.80
   4   6  -4  285.37   23.80
  -4  -5   4   29.60   10.10
  -4  -5   4   22.00   22.30
   4   5  -4   12.80    4.40
   4   5  -4    1.30    3.80
   4   5  -4   13.20   11.80
  -4  -4   4    9.10    5.20
  -4  -4   4  -24.40   17.80
  -4  -4   4   14.00    6.40
   4   4  -4   10.10   10.60
  -4  -3   4   29.40    7.30
  -4  -3   4   19.80    6.50
  -4  -3   4  -30.60   30.00
   4   3  -4   12.10   13.80
  -4  -2   4   23.30    5.60
  -4  -2   4  -23.70   15.00
  -4  -2   4    6.30    2.90
  -4  -2   4   12.40   10.30
  -4  -1   4  178.68   54.89
   4   1  -4  303.77   77.89
   4   1  -4  255.07   40.40
  -4   0   4  129.59   30.20
   4   0  -4  146.39   35.40
   4   0  -4  125.69   64.49
  -4   1   4   72.99    9.60
  -4   1   4   73.59   22.80
  -4   1   4   86.99   10.90
   4  -1  -4   35.90   30.00
  -4   2   4  565.44   58.79
  -4   2   4  522.05   37.90
   4  -2  -4  457.25   86.29
  -4   3   4   12.10   17.60
  -4   3   4   34.10    9.30
  -4   4   4  299.27   55.59
  -4   4   4  245.68   27.10
   4  -4  -4  149.39   61.09
  -4   5   4   65.09   16.50
   4  -5  -4   61.59   15.40
   4  -5  -4   29.50   16.80
   4  -5  -4   95.29   55.39
  -4   6   4   13.60    8.00
   4  -6  -4   46.20   46.00
   4  -6  -4   34.40   12.70
  -4   7   4   31.20   13.20
   4  -7  -4   64.99   61.29
  -3 -10   4    3.30   11.10
   3  10  -4    2.50   26.00
   3  10  -4    6.70   11.60
  -3  -9   4    6.70   10.10
   3   9  -4   61.09   14.60
   3   9  -4    8.70   20.40
  -3  -8   4   79.59   20.00
   3   8  -4   46.40   32.30
   3   8  -4   63.99   15.40
  -3  -7   4  475.05   47.70
  -3  -7   4  369.36   39.10
   3   7  -4  369.26   34.60
   3   7  -4  385.96   61.49
  -3  -6   4   53.79   15.00
   3   6  -4   41.50   11.40
   3   6  -4   30.80   18.20
  -3  -5   4 1721.43  134.59
  -3  -5   4 1607.84  117.39
   3   5  -4 1670.73  138.29
   3   5  -4 1735.23   96.99
   3   5  -4 1716.63  101.29
  -3  -4   4    1.00   15.20
  -3  -4   4    7.50    5.40
  -3  -4   4    7.00    5.80
   3   4  -4   23.20    5.50
   3   4  -4   30.70   18.10
   3   4  -4   16.30    5.00
  -3  -3   4  753.32   47.10
  -3  -3   4  732.93   88.19
  -3  -3   4  825.32   71.29
  -3  -3   4  718.93   50.39
   3   3  -4  765.82   77.19
  -3  -2   4   11.70   17.10
  -3  -2   4    3.30    2.40
  -3  -2   4   14.80    3.90
  -3  -2   4   14.80   11.80
   3   2  -4  -10.60    8.60
  -3  -1   4 8074.09  482.25
  -3  -1   4 8303.37  437.06
   3   1  -4 6657.23  465.55
   3   1  -4 8448.25  447.56
  -3   0   4   91.09   25.10
  -3   0   4  115.89   36.90
   3   0  -4   87.69   28.30
   3   0  -4   62.29   30.20
  -3   1   4  796.92   49.99
  -3   1   4  847.82   76.49
  -3   1   4  925.21  101.99
   3  -1  -4  598.24   92.19
  -3   2   4   44.80   10.80
  -3   2   4   67.59   22.30
  -3   2   4   41.80    8.00
   3  -2  -4   35.70   27.20
  -3   3   4 1069.99  115.29
  -3   3   4 1243.08   67.19
  -3   3   4 1047.90   71.79
   3  -3  -4  772.32  125.49
  -3   4   4  -12.70   19.80
  -3   4   4   37.70   11.80
   3  -4  -4   33.70   10.30
   3  -4  -4  -19.50   25.10
   3  -4  -4   31.60   15.00
  -3   5   4  621.24   51.39
   3  -5  -4  562.34   47.50
   3  -5  -4  416.56  120.09
  -3   6   4   38.60   15.40
   3  -6  -4   75.99   18.30
   3  -6  -4  128.29   70.39
  -3   7   4   17.70    8.20
   3  -7  -4   -4.70   33.60
   3  -7  -4    6.60   12.50
  -3   8   4   53.59   20.00
   3  -8  -4   17.80   16.80
   3  -8  -4   36.20   56.09
  -2 -10   4  121.69   25.20
   2  10  -4  117.99   51.49
   2  10  -4  181.88   35.80
  -2  -9   4   -8.50    8.10
   2   9  -4   -5.70   21.80
   2   9  -4   22.70   10.60
   2   8  -4   30.70   18.30
   2   8  -4   15.10    6.90
  -2  -7   4   13.20    6.70
   2   7  -4    2.80    5.80
   2   7  -4   12.70   12.90
  -2  -6   4  990.30   73.69
   2   6  -4 1085.69   70.19
   2   6  -4 1088.59  104.69
  -2  -5   4  253.87   27.70
   2   5  -4  263.87   52.99
   2   5  -4  266.47   32.30
   2   5  -4  254.47   23.90
  -2  -4   4  259.87   23.90
  -2  -4   4  210.38   24.30
   2   4  -4  253.77   26.30
   2   4  -4  260.07   21.30
   2   4  -4  207.48   43.70
  -2  -3   4   23.20   10.80
  -2  -3   4   32.30   15.60
  -2  -3   4   11.30    5.10
  -2  -3   4   19.10    7.00
   2   3  -4   21.60    5.10
   2   3  -4   37.60    7.80
   2   3  -4   15.70   12.90
  -2  -2   4   20.70    4.60
  -2  -2   4   24.60    6.30
  -2  -2   4    5.70    9.20
  -2  -2   4   29.10   15.50
   2   2  -4   28.00   15.10
   2   2  -4   15.10   11.70
  -2  -1   4  340.07   42.10
  -2  -1   4  313.57   45.60
   2   1  -4  373.06   45.90
   2   1  -4  252.07   44.60
  -2   0   4  175.58   35.60
  -2   0   4  170.68   40.10
   2   0  -4  123.49   38.70
   2   0  -4  184.58   38.30
  -2   1   4  167.28   43.20
  -2   1   4  142.39   19.80
  -2   1   4  139.59   11.80
  -2   1   4  111.19   31.20
   2  -1  -4   73.89   36.70
  -2   2   4 1918.51   98.89
  -2   2   4 1802.32  111.29
  -2   2   4 1662.13  139.09
  -2   2   4 1993.60  150.78
   2  -2  -4 1484.75  164.48
  -2   3   4  281.07   30.70
  -2   3   4  275.17   23.60
   2  -3  -4  226.18   22.60
   2  -3  -4  153.48   59.19
   2  -3  -4  303.57   30.40
  -2   4   4  220.88   28.70
   2  -4  -4  246.48   31.20
   2  -4  -4  137.39   58.49
  -2   5   4   79.49   20.00
   2  -5  -4   39.70   42.70
   2  -5  -4   86.29   18.40
   2  -5  -4   71.49   22.00
  -2   6   4  573.04   54.09
  -2   7   4  352.16   41.20
   2  -7  -4  248.68   86.69
  -2   8   4   37.40   14.90
   2  -8  -4   66.09   53.59
   2  -8  -4   -2.60   11.00
  -1 -10   4   25.20   12.60
   1  10  -4   18.00   10.30
   1  10  -4   76.29   36.50
  -1  -9   4  333.47   40.70
   1   9  -4  396.26   41.30
   1   9  -4  320.97   63.69
  -1  -8   4  149.99   27.50
   1   8  -4  100.59   38.00
   1   8  -4  131.59   24.10
  -1  -7   4  267.67   33.70
   1   7  -4  332.07   32.50
   1   7  -4  315.27   62.89
  -1  -6   4   71.79   18.00
   1   6  -4   88.49   17.00
   1   6  -4   97.39   33.10
  -1  -5   4  512.55   43.10
   1   5  -4  504.75   39.50
   1   5  -4  504.05   61.49
  -1  -4   4   62.09   13.40
  -1  -4   4   60.89   18.40
  -1  -4   4   76.79   15.10
   1   4  -4   56.99   20.90
   1   4  -4   82.69   14.60
   1   4  -4   74.29   16.50
  -1  -3   4 1358.06   82.49
  -1  -3   4 1454.75   84.49
  -1  -3   4 1398.06  102.59
   1   3  -4 1374.96   80.69
   1   3  -4 1555.64   89.59
   1   3  -4 1516.75  113.99
  -1  -2   4   59.69   18.90
  -1  -2   4   83.29    9.70
  -1  -2   4   96.09    9.70
   1   2  -4   89.89   11.40
   1   2  -4   78.59    8.00
   1   2  -4   78.39   23.80
   1   2  -4   65.59   16.50
  -1  -1   4 2464.55  124.19
  -1  -1   4 2451.45  124.19
  -1  -1   4 2355.56  155.48
   1   1  -4 2670.83  163.58
   1   1  -4 2048.70  149.09
  -1   0   4   29.80   13.60
  -1   0   4   52.39   18.80
   1   0  -4   53.19   21.20
   1   0  -4   47.20   18.70
  -1   1   4 1256.67   72.39
  -1   1   4 1505.75  109.89
  -1   1   4 1206.08   76.49
  -1   1   4 1335.87  111.69
   1  -1  -4 1323.97  125.09
  -1   2   4  385.16   41.20
  -1   2   4  551.14   60.99
  -1   2   4  420.46   31.00
   1  -2  -4  442.16   73.39
   1  -2  -4  421.56   28.80
   1  -2  -4  451.75   35.80
  -1   3   4 2172.88  135.99
  -1   3   4 2227.38  119.59
   1  -3  -4 2061.39  117.09
   1  -3  -4 1918.01  192.88
   1  -3  -4 1951.40  129.59
  -1   4   4  281.67   36.00
   1  -4  -4  396.26   98.39
   1  -4  -4  295.07   36.90
   1  -4  -4  300.57   28.50
  -1   5   4  241.98   32.80
   1  -5  -4  147.49   61.39
   1  -5  -4  166.88   28.40
  -1   6   4   21.90   12.90
   1  -6  -4   11.60   32.70
   1  -6  -4   37.00   13.00
  -1   7   4   -1.50    7.40
   1  -7  -4  -10.40   29.70
   1  -7  -4   21.20    7.80
  -1   8   4   21.50   13.90
   1  -8  -4   17.00    9.20
   1  -8  -4   59.89   43.10
  -1   9   4   64.69   21.00
   1  -9  -4   56.99   58.39
   1  -9  -4   66.19   17.10
   0  -9   4   23.80   11.10
   0   9  -4   13.90   11.10
   0   9  -4   23.60   22.20
   0  -8   4   15.30    9.90
   0   8  -4   33.20   11.20
   0   8  -4   33.90   27.20
   0  -7   4    2.50    6.00
   0   7  -4    2.20   13.50
   0   7  -4    7.30    8.10
   0  -6   4  145.99   26.10
   0   6  -4  162.58   21.20
   0   6  -4  147.89   37.80
   0  -5   4  202.98   24.90
   0   5  -4  176.48   21.20
   0   5  -4  181.38   40.20
   0  -4   4 1374.06   97.19
   0   4  -4 1515.25  115.59
   0   4  -4 1445.36   88.69
   0   4  -4 1578.14   92.79
   0  -3   4    3.10    8.10
   0  -3   4   17.80    5.80
   0  -3   4   20.60    6.00
   0   3  -4    7.60   10.40
   0   3  -4   33.40    8.70
   0   3  -4   19.20    6.40
   0  -2   4   85.79   20.20
   0  -2   4   72.39   10.00
   0  -2   4   82.59   10.10
   0   2  -4   82.49    9.80
   0   2  -4   75.09   20.90
   0   2  -4   86.49   10.60
   0  -1   4  241.68   32.90
   0  -1   4  250.77   18.50
   0   1  -4  267.87   27.00
   0   1  -4  223.48   33.90
   0   1  -4  248.68   17.70
   0   1  -4  243.58   18.50
   0   0   4 1784.72  129.19
   0   0   4 1669.43   99.29
   0   0   4 1800.02   95.09
   0   0  -4 1806.02  120.39
   0   0  -4 1848.22  130.99
   0   0  -4 1813.52   94.09
   0   1   4   76.49    9.50
   0   1   4   67.99   27.60
   0   1   4   69.39   13.90
   0  -1  -4   55.09   18.50
   0  -1  -4   58.79   10.80
   0   2   4 5546.15  310.67
   0   2   4 5796.02  298.17
   0  -2  -4 5642.64  295.47
   0  -2  -4 5538.95  344.97
   0  -2  -4 5722.43  306.97
   0   3   4   66.29   19.80
   0   3   4   57.89   14.00
   0  -3  -4  105.89   24.50
   0  -3  -4   53.89   27.60
   0  -3  -4   93.59   16.80
   0   4   4  560.44   55.19
   0   4   4  661.03   63.29
   0  -4  -4  583.84   47.00
   0  -4  -4  668.43   89.49
   0  -4  -4  713.23   63.89
   0   5   4   14.20    9.90
   0  -5  -4   -5.80    4.50
   0  -5  -4    8.40   15.20
   0   6   4 2828.92  182.28
   0  -6  -4 2705.33  162.38
   0  -6  -4 2931.91  248.98
   0   7   4   47.40   22.10
   0  -7  -4   50.89   12.80
   0  -7  -4   68.79   36.70
   0   8   4   24.60   15.20
   0  -8  -4   21.40   10.00
   0   9   4   30.50   16.30
   0  -9  -4   31.10   11.10
   0  -9  -4    9.60   37.30
  -1   9  -4  223.08   35.70
  -1   9  -4  333.97   67.49
   1  -8   4   11.70    9.50
  -1   8  -4    5.50    8.10
  -1   8  -4  -25.30   19.20
   1  -7   4   83.99   20.10
  -1   7  -4   31.30   22.10
  -1   7  -4   72.19   17.50
   1  -6   4    6.40    6.40
  -1   6  -4   18.70   13.60
  -1   6  -4   19.20    9.50
   1  -5   4 1641.44  112.69
  -1   5  -4 1746.33  109.59
  -1   5  -4 1635.54  130.39
  -1   5  -4 2111.79  120.39
   1  -4   4   36.20   10.60
  -1   4  -4   49.70   18.90
  -1   4  -4   42.40   13.90
  -1   4  -4   52.59   12.10
   1  -3   4 2927.41  159.38
   1  -3   4 3003.50  170.38
  -1   3  -4 2941.31  158.68
  -1   3  -4 2801.92  180.48
  -1   3  -4 2573.64  170.48
  -1   3  -4 3054.09  159.38
   1  -2   4  187.78   21.70
   1  -2   4  165.18   16.40
   1  -2   4  157.18   23.30
  -1   2  -4  154.58   15.70
  -1   2  -4  117.19   35.40
  -1   2  -4  135.59   15.60
  -1   2  -4  174.68   27.90
   1  -1   4 1651.13   95.99
   1  -1   4 1516.85  106.59
   1  -1   4 1505.55   87.49
  -1   1  -4 1547.25   88.29
  -1   1  -4 1634.14  112.49
  -1   1  -4 1576.64   87.29
   1   0   4  184.98   19.70
   1   0   4  154.78   14.60
   1   0   4  192.58   37.70
  -1   0  -4  156.28   17.70
  -1   0  -4  174.98   14.80
   1   1   4 6555.54  352.06
   1   1   4 6923.11  364.66
  -1  -1  -4 7028.80  351.86
  -1  -1  -4 6999.90  363.16
   1   2   4   -5.00    7.50
   1   2   4    5.50    4.60
  -1  -2  -4    8.20    8.90
   1   3   4  354.06   45.30
  -1  -3  -4  250.37   42.30
  -1  -3  -4  297.97   27.80
  -1  -3  -4  299.07   43.40
   1   4   4  149.69   28.50
   1   4   4  200.18   40.00
  -1  -4  -4  145.19   34.30
  -1  -4  -4  168.88   20.70
  -1  -4  -4  157.38   39.80
   1   5   4  393.56   60.59
  -1  -5  -4  352.46   57.79
  -1  -5  -4  346.17   34.40
   1   6   4    2.90    7.80
  -1  -6  -4    4.10   10.50
  -1  -6  -4    1.90    4.60
   1   7   4   24.30   12.90
  -1  -7  -4    3.60    6.70
  -1  -7  -4   34.40   26.70
   1   8   4    0.60   11.40
  -1  -8  -4  -14.20   18.50
  -1  -8  -4    0.90    5.00
   1   9   4  145.39   35.70
  -1  -9  -4   97.59   50.49
  -1  -9  -4  106.49   20.20
   1  10   4    4.20   14.70
  -1 -10  -4   23.60   17.10
  -1 -10  -4    8.20   39.20
   2  -8   4  -21.00   13.30
  -2   8  -4  -14.70    7.40
  -2   8  -4  -16.40   19.10
   2  -7   4   -3.20   12.60
  -2   7  -4   21.00    9.30
  -2   7  -4   13.50   19.10
   2  -6   4   87.69   34.20
  -2   6  -4   75.39   24.50
  -2   6  -4   74.39   23.50
  -2   6  -4   84.99   25.20
   2  -5   4   12.00   11.50
  -2   5  -4   -7.80    9.10
  -2   5  -4   20.90    9.70
  -2   5  -4   28.50   14.00
   2  -4   4  304.47   36.40
  -2   4  -4  255.37   36.40
  -2   4  -4  267.07   27.10
  -2   4  -4  280.37   42.90
   2  -3   4  238.08   29.50
  -2   3  -4  227.68   30.40
  -2   3  -4  156.58   36.60
  -2   3  -4  226.78   22.50
   2  -2   4 2240.28  130.09
   2  -2   4 2455.35  139.39
   2  -2   4 2373.96  141.59
  -2   2  -4 2224.08  170.78
  -2   2  -4 2301.27  129.79
  -2   2  -4 2397.06  148.49
  -2   2  -4 2327.27  129.99
   2  -1   4    3.60    6.70
   2  -1   4    2.80    3.10
   2  -1   4   19.00    9.20
  -2   1  -4   -3.40    6.30
  -2   1  -4   11.50    6.10
  -2   1  -4    9.40    4.50
   2   0   4  236.08   26.80
   2   0   4  276.47   21.60
   2   0   4  240.28   37.00
  -2   0  -4  232.58   26.40
  -2   0  -4  246.28   20.50
   2   1   4  277.47   31.40
   2   1   4  311.17   23.70
  -2  -1  -4  308.07   32.10
  -2  -1  -4  259.97   22.00
   2   2   4   15.90    5.60
   2   2   4   11.90   11.80
  -2  -2  -4   38.50    8.60
  -2  -2  -4   21.70   10.90
   2   3   4    1.40    4.00
   2   3   4   15.30   14.90
  -2  -3  -4    7.80    5.30
  -2  -3  -4    9.90   10.60
   2   4   4   -0.20    9.90
  -2  -4  -4  -14.20   12.80
  -2  -4  -4    2.30    5.00
   2   5   4  168.78   37.60
  -2  -5  -4   86.39   28.60
  -2  -5  -4  157.08   20.80
   2   6   4  897.11   87.39
  -2  -6  -4 1119.79  104.69
  -2  -6  -4  969.20   71.39
   2   7   4   83.19   29.20
  -2  -7  -4   52.49   25.80
  -2  -7  -4   53.29   16.30
   2   8   4   60.59   20.80
  -2  -8  -4   36.20   12.70
  -2  -8  -4   53.09   29.80
   2   9   4  142.89   37.10
  -2  -9  -4   90.69   18.10
  -2  -9  -4   80.99   38.10
   2  10   4  391.06   49.70
  -2 -10  -4  323.57   43.90
  -2 -10  -4  422.16   92.29
   3  -8   4  164.38   54.59
  -3   8  -4  152.88   26.20
   3  -7   4  223.58   46.80
  -3   7  -4  210.38   28.70
  -3   7  -4  244.18   38.70
   3  -6   4  370.26   51.49
  -3   6  -4  354.26   37.10
  -3   6  -4  439.76   48.70
   3  -5   4  168.48   35.10
  -3   5  -4  249.38   47.10
  -3   5  -4  226.48   25.80
  -3   5  -4  218.98   31.60
   3  -4   4  349.07   41.00
  -3   4  -4  273.17   51.19
  -3   4  -4  303.97   37.20
  -3   4  -4  321.27   30.90
   3  -3   4   27.90   14.30
  -3   3  -4   27.60   11.40
  -3   3  -4   32.90    9.10
   3  -2   4   30.60   13.10
   3  -2   4   23.30    7.10
  -3   2  -4   23.00    7.70
  -3   2  -4   17.30   19.60
   3  -1   4   -1.10    2.90
   3  -1   4   -3.40    4.80
   3  -1   4   -3.90    4.60
  -3   1  -4    2.10    5.30
  -3   1  -4    9.60    4.90
   3   0   4   36.10   16.20
   3   0   4   76.19   13.40
   3   0   4   82.59   19.90
  -3   0  -4   51.29   10.30
  -3   0  -4   43.10   13.60
   3   1   4  982.80   75.69
  -3  -1  -4  978.30   74.19
  -3  -1  -4  979.70   60.39
   3   2   4    4.10    9.80
   3   2   4    1.50    3.50
  -3  -2  -4    0.80    2.00
  -3  -2  -4    1.80    8.40
   3   3   4  304.97   27.70
   3   3   4  362.86   58.19
  -3  -3  -4  345.07   28.70
  -3  -3  -4  296.57   51.59
   3   4   4  482.55   59.69
  -3  -4  -4  506.15   40.90
   3   5   4  526.05   62.89
  -3  -5  -4  503.45   44.40
   3   6   4   33.00   18.80
   3   7   4  698.43   70.09
  -3  -7  -4  565.24   70.69
  -3  -7  -4  473.85   46.40
   3   8   4  147.69   35.10
  -3  -8  -4  117.89   24.00
  -3  -8  -4  149.99   42.00
   3   9   4   56.49   26.20
  -3  -9  -4   41.10   12.30
  -3  -9  -4   40.00   33.10
   3  10   4   47.80   18.90
  -3 -10  -4    6.00    7.60
  -3 -10  -4  -13.40   21.00
   4  -7   4  117.59   35.70
  -4   7  -4  137.59   37.00
   4  -6   4  120.69   33.30
  -4   6  -4  103.49   22.20
  -4   6  -4   88.69   24.00
   4  -5   4  132.69   32.20
  -4   5  -4   79.79   17.50
  -4   5  -4  118.09   22.40
   4  -4   4  137.69   32.50
  -4   4  -4  126.99   21.70
   4  -3   4  128.19   28.00
  -4   3  -4  140.59   22.10
   4  -2   4 2430.16  151.08
  -4   2  -4 1986.70  271.97
  -4   2  -4 2429.66  135.19
   4  -1   4  109.69   25.80
   4  -1   4   86.29   12.70
  -4   1  -4  101.69   13.70
  -4   1  -4   57.89   34.60
   4   0   4  151.38   29.60
   4   0   4  131.29   28.30
   4   0   4  123.69   15.30
  -4   0  -4  126.69   15.30
   4   1   4  202.38   20.20
   4   1   4  222.28   38.50
  -4  -1  -4  200.28   19.90
   4   2   4 4547.84  267.27
   4   2   4 4438.76  238.28
  -4  -3  -4    2.10    3.50
   4   4   4 1246.98  108.89
  -4  -4  -4 1254.07   79.69
   4   5   4   38.80   19.40
  -4  -5  -4   13.70    6.30
   4   6   4  565.34   67.39
  -4  -6  -4  662.73   53.99
   4   7   4   22.90   12.40
  -4  -7  -4    9.40    9.30
   4   8   4  430.16   55.89
  -4  -8  -4  522.45   67.19
  -4  -8  -4  406.36   42.00
   4   9   4   54.39   26.00
  -4  -9  -4   68.89   19.70
  -4  -9  -4   74.89   31.40
   4  10   4   33.70   19.60
  -4 -10  -4    5.70    6.60
  -4 -10  -4   13.00   16.40
   5  -6   4  134.99   33.30
  -5   6  -4   88.39   19.80
   5  -5   4   27.90   17.00
  -5   5  -4   18.80    9.70
   5  -4   4  316.37   42.60
  -5   4  -4  297.57   30.60
   5  -3   4  430.86   47.60
  -5   3  -4  349.27   33.40
   5  -2   4  108.49   27.90
  -5   2  -4   68.39   14.90
   5  -1   4   20.10   13.40
  -5   1  -4   34.20    9.70
   5   0   4  169.78   35.10
   5   0   4  178.18   24.60
  -5   0  -4  128.99   16.20
   5   1   4   -2.10    9.20
  -5  -1  -4   12.90    5.50
   5   2   4   11.70   12.80
  -5  -2  -4   47.70   11.10
   5   3   4  304.77   52.99
  -5  -3  -4  298.67   27.30
   5   4   4  140.69   39.90
  -5  -4  -4  129.59   21.50
   5   5   4   50.59   24.50
  -5  -5  -4   70.99   15.40
   5   6   4   29.30   18.40
  -5  -6  -4   39.20   12.50
   5   7   4  509.55   67.19
  -5  -7  -4  563.74   50.59
   5   8   4   62.99   22.00
  -5  -8  -4   88.69   19.80
   5   9   4   -5.30   13.60
  -5  -9  -4   17.00    9.70
  -5  -9  -4   10.80   14.50
   5  10   4   65.89   24.10
  -5 -10  -4   -1.10   13.80
  -5 -10  -4   31.10   12.80
   6  -5   4  103.79   33.80
  -6   5  -4  137.59   23.40
   6  -4   4   -3.90   14.60
  -6   4  -4   22.60    9.50
   6  -3   4  399.36   50.19
  -6   3  -4  459.45   39.20
   6  -2   4  129.39   31.80
  -6   2  -4  111.09   19.10
   6  -1   4  932.61   80.09
  -6   1  -4  854.91   60.49
   6   0   4   25.10    7.20
   6   0   4   30.30   17.60
   6   0   4   11.70    5.60
  -6   0  -4    3.50    4.70
   6   1   4   93.89   26.10
  -6  -1  -4   65.19   12.90
   6   2   4 1252.47  105.79
  -6  -2  -4 1305.77   79.89
   6   3   4  592.34   68.79
  -6  -3  -4  629.14   45.60
   6   4   4   33.50   22.80
  -6  -4  -4   44.40   11.00
   6   5   4   88.19   25.70
  -6  -5  -4   48.80   12.20
   6   6   4  646.14   69.69
  -6  -6  -4  646.14   52.49
   6   7   4   16.00   11.60
  -6  -7  -4    7.70    7.00
   6   8   4  281.27   50.29
  -6  -8  -4  189.88   30.80
   6   9   4    4.00   11.20
  -6  -9  -4   26.80   13.20
   6  10   4   17.40   16.40
  -6 -10  -4   19.60   18.20
  -6 -10  -4   11.90    9.50
   7  -4   4   68.69   26.20
  -7   4  -4   76.49   18.10
   7  -3   4   37.90   23.20
  -7   3  -4   82.99   16.40
   7  -2   4   34.60   19.30
  -7   2  -4   13.60    6.30
   7  -1   4  424.36   51.49
  -7   1  -4  330.07   32.00
   7   0   4  318.17   52.49
  -7   0  -4  316.27   29.50
   7   1   4  -38.30   15.20
   7   1   4    3.60    7.20
  -7  -1  -4   -2.40    4.60
   7   2   4   19.90   17.80
   7   2   4   12.80    8.20
  -7  -2  -4    9.30    5.70
   7   3   4  289.17   51.69
  -7  -3  -4  241.68   25.10
   7   4   4   12.80   18.80
  -7  -4  -4   17.80    6.90
   7   5   4  371.26   63.09
  -7  -5  -4  346.97   33.70
   7   6   4  136.29   34.50
  -7  -6  -4  112.99   21.40
   7   7   4   45.30   19.00
  -7  -7  -4   64.99   15.80
   7   8   4   19.80   17.30
  -7  -8  -4   -0.10    9.60
   7   9   4  276.17   47.40
  -7  -9  -4  260.27   34.70
   8  -3   4   80.09   30.30
   8  -2   4   87.69   27.40
  -8   2  -4   56.89   13.10
   8  -1   4  270.37   49.50
  -8   1  -4  183.88   23.00
   8   0   4  135.09   33.70
  -8   0  -4  131.09   18.00
   8   1   4   37.40   17.30
   8   1   4   22.40   24.60
  -8  -1  -4   31.10   11.00
   8   2   4   15.00   20.50
   8   2   4    8.70    9.20
  -8  -2  -4    5.20    5.80
   8   3   4  480.15   51.59
   8   3   4  478.05   64.39
  -8  -3  -4  504.95   40.00
   8   4   4  378.36   48.60
   8   4   4  436.66   55.09
  -8  -4  -4  444.06   36.80
   8   5   4  -11.20   11.60
   8   5   4  -16.80   10.20
  -8  -5  -4    6.90    4.90
   8   6   4   63.29   22.80
  -8  -6  -4   65.39   15.60
   8   7   4  143.09   40.90
   8   7   4  250.67   46.70
  -8  -7  -4  144.99   25.00
   8   8   4   55.99   29.70
   8   8   4   46.30   18.00
  -8  -8  -4   66.09   23.00
   8   9   4  -29.40   20.70
   8   9   4   47.30   17.30
  -8  -9  -4   17.90   11.10
  -9   1  -4  194.58   23.60
   9   0   4  194.58   44.90
  -9   0  -4  205.38   24.30
   9   1   4   18.20   25.10
  -9  -1  -4    1.80    5.70
   9   2   4   27.30   17.50
  -9  -2  -4   45.70   12.10
   9   3   4  203.78   38.90
   9   3   4  190.58   41.30
  -9  -3  -4  261.77   26.50
   9   4   4  172.08   35.30
   9   4   4   90.09   30.70
  -9  -4  -4  192.38   22.20
   9   5   4  120.39   34.30
   9   5   4  112.89   30.60
  -9  -5  -4  167.68   20.80
   9   6   4   65.99   31.20
   9   6   4   90.69   29.30
  -9  -6  -4  123.99   21.20
   9   7   4   52.49   28.70
   9   7   4  147.19   29.80
   9   8   4   -9.70   14.70
   9   8   4   27.10   21.70
  -9  -8  -4   -7.90    7.70
  10   1   4    1.50   31.80
 -10  -1  -4   12.60    8.00
  10   2   4   44.70   27.70
  10   3   4  -33.60   20.30
 -10  -3  -4   43.30   11.60
  10   4   4   95.59   27.80
  10   4   4   45.50   28.70
 -10  -4  -4   79.29   15.30
  10   5   4    6.70   18.70
  10   6   4    5.80   21.00
  10   6   4   11.80   19.50
 -10  -6  -4   26.90   10.20
 -10  -5   5   94.19   16.80
  10   5  -5   14.40   32.90
 -10  -4   5   46.20   12.00
  10   4  -5    3.20   32.80
 -10  -3   5   16.10    8.00
  10   3  -5   47.10   42.50
 -10  -2   5   14.20   10.50
  -9  -7   5   11.70   13.40
   9   7  -5  -20.20   23.90
  -9  -6   5    0.60    8.20
   9   6  -5   27.50   26.00
  -9  -5   5  254.77   25.90
   9   5  -5  206.68   54.99
  -9  -4   5  112.59   17.40
   9   4  -5  106.79   46.60
  -9  -3   5   54.29   11.40
   9   3  -5   36.00   27.80
  -9  -2   5    8.70    6.50
   9   2  -5    9.60   26.00
  -9  -1   5  635.14   41.20
   9   1  -5  491.75   75.89
  -9   0   5   18.00    7.30
  -9   1   5  129.39   16.30
  -8  -8   5   15.00   11.40
   8   8  -5  -10.70   24.00
   8   7  -5   40.30   27.60
  -8  -6   5  296.37   30.70
   8   6  -5  188.68   54.79
  -8  -5   5   -6.50    5.70
  -8  -4   5   -0.20    5.60
   8   4  -5  -10.90   18.10
  -8  -3   5  211.08   19.00
   8   3  -5  187.78   49.80
   8   2  -5  -16.20   24.30
  -8  -1   5   35.40    8.20
   8   1  -5   48.90   30.20
  -8   0   5   -2.20    4.60
  -8   1   5   -2.50    4.90
  -8   2   5   35.50   10.60
  -8   3   5   23.00   11.00
   8  -3  -5    7.70   46.30
  -7  -9   5    6.90    9.20
   7   9  -5   -9.60   19.10
  -7  -8   5   67.39   17.00
   7   8  -5  145.59   48.70
  -7  -7   5   28.10   12.20
   7   7  -5   67.69   32.60
  -7  -6   5  466.45   42.30
   7   6  -5  499.55   74.49
  -7  -5   5    7.70    6.00
   7   5  -5   -4.30   16.60
  -7  -4   5  759.62   50.09
   7   4  -5  771.72   89.09
  -7  -3   5   14.40    5.50
  -7  -3   5   -8.50   11.90
   7   3  -5   21.20   20.50
  -7  -2   5  347.87   24.10
  -7  -2   5  292.87   31.60
   7   2  -5  342.17   54.89
  -7  -1   5  236.28   18.80
  -7  -1   5  244.38   23.30
   7   1  -5  235.78   50.09
  -7   0   5  764.52   46.60
   7   0  -5  669.23  117.89
  -7   1   5   39.50   18.10
  -7   1   5   55.79   11.20
   7  -1  -5   40.70   45.50
  -7   2   5   -2.80    6.60
   7  -2  -5    2.70   37.10
  -7   3   5  197.08   23.60
   7  -3  -5  236.78   87.99
  -7   4   5   77.79   18.50
   7  -4  -5  103.49   72.19
  -6  -9   5  203.08   27.50
   6   9  -5  196.38   21.40
  -6  -8   5   25.00    9.60
   6   8  -5  -25.30   14.30
  -6  -7   5   58.29   15.90
   6   7  -5   52.99   25.00
  -6  -6   5   32.80   11.30
   6   6  -5   33.60   23.20
   6   5  -5  228.38   56.19
  -6  -4   5   52.29   11.10
  -6  -4   5   28.20   13.20
   6   4  -5   24.30   21.10
  -6  -3   5  167.68   28.00
  -6  -3   5  183.48   16.10
   6   3  -5  224.68   49.30
  -6  -2   5   -0.30   10.60
   6   2  -5   -4.60   15.60
  -6  -1   5  186.38   14.30
  -6  -1   5  158.78   18.40
   6   1  -5  209.18   73.69
   6   1  -5  217.58   51.09
  -6   0   5    7.40    6.90
  -6   0   5   11.90    4.40
   6   0  -5    7.20   20.90
   6   0  -5  -13.90   14.20
  -6   1   5   52.19   23.80
   6  -1  -5   63.39   42.50
  -6   2   5  118.39   28.70
  -6   2   5  108.69   17.50
   6  -2  -5   63.89   45.80
  -6   3   5  107.59   29.40
  -6   3   5   95.69   17.20
   6  -3  -5  113.39   57.99
  -6   4   5  119.59   19.70
   6  -4  -5   66.09   57.99
   6  -5  -5   38.70   56.39
  -5 -10   5    8.60    8.30
   5  10  -5   21.30   33.00
   5  10  -5   -8.60    7.60
  -5  -9   5    1.80    8.60
   5   9  -5   22.30    8.40
   5   9  -5  -15.00   18.00
  -5  -8   5    8.60    8.40
   5   8  -5   21.20   18.50
   5   8  -5   34.30    9.70
  -5  -7   5   23.60    9.80
  -5  -7   5   46.50   31.70
   5   7  -5   28.00    8.00
   5   7  -5   23.70    6.80
   5   7  -5   39.60   19.80
  -5  -6   5  435.76   39.30
  -5  -6   5  368.96   71.49
   5   6  -5  377.26   60.59
   5   6  -5  401.16   26.20
  -5  -5   5  211.38   24.10
  -5  -5   5  194.28   57.29
   5   5  -5  154.78   44.10
  -5  -4   5  124.69   15.90
  -5  -4   5   88.19   18.00
   5   4  -5   62.59   26.50
  -5  -3   5  233.78   22.10
  -5  -3   5  195.08   17.20
   5   3  -5  209.58   47.90
   5   2  -5  231.78   51.49
   5   1  -5  251.87   52.49
   5   1  -5  256.27   70.89
  -5   0   5 1616.84  124.69
   5   0  -5 1855.91  141.39
  -5   1   5  493.35   32.90
  -5   1   5  473.05   55.09
   5  -1  -5  352.46   95.19
  -5   2   5  -12.70   12.80
  -5   2   5    0.40    3.80
  -5   2   5   -0.70    3.70
   5  -2  -5  -12.20   24.10
  -5   3   5   11.10    7.40
  -5   3   5   10.70   17.70
   5  -3  -5   12.60   28.40
  -5   4   5  558.94   44.00
   5  -4  -5  374.16  112.79
   5  -5  -5   36.60   47.70
  -5   6   5    6.80    7.20
   5  -6  -5   -6.50   46.20
  -4 -10   5  -15.20    7.30
   4  10  -5  -30.10   22.70
   4  10  -5   -9.20    7.80
  -4  -9   5    3.20    9.10
   4   9  -5    8.00    7.80
   4   9  -5    3.90   23.30
  -4  -8   5   -7.40    5.30
   4   8  -5    2.80    5.80
   4   8  -5   17.70   20.80
  -4  -7   5  -19.00   16.40
  -4  -7   5   -6.60    5.40
   4   7  -5    4.30    5.60
   4   7  -5  -11.90   15.50
  -4  -6   5   16.60   23.50
  -4  -6   5   11.70    9.20
   4   6  -5   41.50   21.00
   4   6  -5   32.70    7.70
  -4  -5   5   26.40    9.60
  -4  -5   5   12.60   22.00
   4   5  -5   39.10    6.80
   4   5  -5   55.89   22.30
   4   5  -5   33.30    6.40
  -4  -4   5  319.37   29.40
  -4  -4   5  347.57   28.80
  -4  -4   5  281.47   64.79
   4   4  -5  356.46   54.09
  -4  -3   5  943.41  125.89
  -4  -3   5  974.00   60.69
  -4  -3   5 1025.90   60.39
   4   3  -5 1110.89  101.59
  -4  -2   5    3.90   23.60
   4   2  -5   12.30   12.50
   4   2  -5   20.20   15.70
  -4  -1   5   23.60   25.00
  -4  -1   5   18.10   14.20
   4   1  -5   35.60   19.30
   4   1  -5   30.10   28.40
  -4   0   5  210.68   33.60
   4   0  -5  193.68   44.10
   4   0  -5  133.59   55.39
  -4   1   5 1808.32   95.29
  -4   1   5 1783.42  131.09
   4  -1  -5 1387.46  167.08
  -4   2   5   70.69   13.60
  -4   2   5   92.79   10.80
   4  -2  -5   27.60   28.50
  -4   3   5  177.38   20.70
  -4   3   5  174.68   43.90
  -4   4   5  153.28   21.20
   4  -4  -5  105.49   52.29
  -4   5   5   18.30   10.30
   4  -5  -5  -18.30   42.10
  -4   6   5   37.40   14.00
   4  -6  -5   27.20   44.10
  -4   7   5  103.59   21.50
   4  -7  -5  135.99   64.49
  -3 -10   5  247.98   33.80
   3  10  -5  263.07   29.80
  -3  -9   5   -5.10    6.70
   3   9  -5    9.60   24.50
   3   9  -5   10.00    8.40
  -3  -8   5 1127.09   81.99
   3   8  -5 1028.10  115.29
   3   8  -5 1146.59   74.59
  -3  -7   5   55.79   14.60
   3   7  -5   47.80   11.60
   3   7  -5   47.40   30.10
  -3  -6   5  458.65   41.10
   3   6  -5  392.76   61.89
   3   6  -5  477.65   34.90
  -3  -5   5   21.80   10.80
  -3  -5   5   33.20   18.60
   3   5  -5   43.00   19.00
   3   5  -5   18.50    6.20
   3   5  -5   19.40    7.00
  -3  -4   5 3797.92  205.28
  -3  -4   5 3888.51  202.18
  -3  -4   5 3654.83  245.48
   3   4  -5 3828.82  194.08
   3   4  -5 3677.93  193.28
   3   4  -5 3581.34  247.08
  -3  -3   5    5.40    3.80
  -3  -3   5   11.90   17.80
  -3  -3   5    7.00    4.70
   3   3  -5    3.60   13.80
  -3  -2   5  278.87   40.00
  -3  -2   5  259.97   16.70
  -3  -2   5  241.78   18.20
  -3  -2   5  227.78   52.79
   3   2  -5  268.37   51.89
   3   2  -5  279.87   50.59
  -3  -1   5  161.08   47.70
  -3  -1   5  147.69   34.70
   3   1  -5  165.88   40.30
   3   1  -5  119.19   38.60
  -3   0   5   26.90   19.40
  -3   0   5   11.50   13.20
   3   0  -5    0.20   10.20
   3   0  -5  -10.50    9.10
  -3   1   5  267.17   16.90
  -3   1   5  215.88   23.00
  -3   1   5  271.57   67.89
  -3   2   5  396.06   54.89
  -3   2   5  432.36   28.40
  -3   2   5  420.66   35.80
   3  -2  -5  319.47   83.69
  -3   3   5  295.37   58.39
  -3   3   5  174.18   24.20
  -3   3   5  256.17   21.50
   3  -3  -5  132.29   54.49
  -3   4   5  541.05   46.80
   3  -4  -5  353.66  104.39
   3  -4  -5  605.44   43.80
   3  -4  -5  535.35   39.00
  -3   5   5  143.49   26.30
   3  -5  -5  108.39   19.70
   3  -5  -5  130.49   24.70
  -3   6   5   38.30   13.50
   3  -6  -5   35.90   24.10
   3  -6  -5   36.30   14.90
   3  -6  -5   13.60   43.50
  -3   7   5    4.70    9.60
   3  -7  -5   -1.90   41.40
   3  -7  -5   10.70   11.70
   3  -8  -5   73.69   18.70
   3  -8  -5   45.00   58.59
  -2 -10   5   -8.50    8.30
   2  10  -5  -10.00   25.80
   2  10  -5    3.10    9.90
  -2  -9   5  201.78   34.90
   2   9  -5  183.68   24.50
   2   9  -5  141.49   48.10
  -2  -8   5   23.20   11.20
   2   8  -5   64.09   17.40
   2   8  -5   -1.00   25.50
  -2  -7   5   48.80   14.00
   2   7  -5   67.89   15.80
   2   7  -5   50.19   26.80
  -2  -6   5   16.40    9.10
   2   6  -5   18.40    7.10
   2   6  -5   21.30   18.00
  -2  -5   5    7.80    5.20
   2   5  -5   15.20   10.90
   2   5  -5   21.80   13.60
   2   5  -5   12.30    5.40
  -2  -4   5    4.80    3.60
  -2  -4   5    4.80    5.20
   2   4  -5    2.20    3.10
   2   4  -5   21.60   13.30
   2   4  -5    9.40    7.10
  -2  -3   5  715.03   46.70
  -2  -3   5  687.53   66.99
  -2  -3   5  675.33   44.30
  -2  -3   5  690.23   58.99
   2   3  -5  703.43   42.90
   2   3  -5  718.23   76.49
   2   3  -5  706.83   40.30
  -2  -2   5    8.90    3.10
  -2  -2   5   10.50    3.90
  -2  -2   5    3.20    7.50
  -2  -2   5   17.20   10.20
   2   2  -5   10.10    9.40
   2   2  -5   -0.30    6.80
  -2  -1   5  232.68   38.00
  -2  -1   5  234.38   35.30
   2   1  -5  291.07   43.70
  -2   0   5   66.69   23.30
  -2   0   5   52.39   22.80
   2   0  -5   78.69   26.30
   2   0  -5   63.29   28.30
  -2   1   5 3940.11  196.28
  -2   1   5 3704.63  202.68
  -2   1   5 4298.07  256.97
  -2   1   5 4037.60  250.87
   2  -1  -5 3125.29  270.27
  -2   2   5  159.98   52.29
  -2   2   5  135.09   13.50
  -2   2   5  106.89   22.90
   2  -2  -5  113.99   53.39
  -2   3   5  129.99   46.40
  -2   3   5  171.48   17.90
  -2   3   5  146.99   27.20
   2  -3  -5  109.89   56.49
   2  -3  -5  180.68   19.90
  -2   4   5  178.18   36.20
   2  -4  -5  251.57   29.80
   2  -4  -5  236.28   87.49
  -2   5   5  897.91   74.59
   2  -5  -5  768.92  140.59
   2  -5  -5 1102.29   77.79
  -2   6   5   57.09   16.60
   2  -6  -5   50.09   50.19
  -2   7   5  399.56   43.90
   2  -7  -5  246.68   85.49
  -2   8   5   -6.50   12.10
   2  -8  -5   31.30   41.20
  -1  -9   5  120.79   28.00
   1   9  -5  107.69   41.70
   1   9  -5  154.98   27.00
  -1  -8   5  276.77   34.10
   1   8  -5  292.97   31.70
  -1  -7   5    9.50   10.40
   1   7  -5   11.80    7.80
   1   7  -5   -0.40   19.80
  -1  -6   5   62.69   15.90
   1   6  -5   65.39   26.80
   1   6  -5   73.79   15.00
  -1  -5   5   68.89   15.40
   1   5  -5   84.69   27.20
   1   5  -5   65.99   12.90
  -1  -4   5 4730.43  250.97
   1   4  -5 4594.54  290.67
   1   4  -5 4272.17  245.38
   1   4  -5 5136.19  257.07
  -1  -3   5  168.88   34.20
  -1  -3   5  208.28   19.50
  -1  -3   5  180.68   20.20
   1   3  -5  192.18   42.70
   1   3  -5  197.48   21.50
   1   3  -5  211.28   17.40
  -1  -2   5  185.28   35.50
  -1  -2   5  174.08   15.90
  -1  -2   5  167.08   15.10
  -1  -2   5  209.58   23.70
   1   2  -5  154.18   16.60
   1   2  -5  192.98   13.90
   1   2  -5  173.38   39.10
  -1  -1   5  273.77   20.80
  -1  -1   5  336.77   20.50
  -1  -1   5  255.57   39.60
  -1  -1   5  385.06   40.80
   1   1  -5  297.57   43.80
   1   1  -5  236.98   37.60
  -1   0   5 3859.61  242.98
  -1   0   5 3754.82  196.28
  -1   0   5 4106.09  198.78
   1   0  -5 3883.71  247.58
   1   0  -5 3484.55  247.88
  -1   1   5  158.38   15.10
  -1   1   5  182.38   33.70
  -1   1   5  149.29   17.00
  -1   1   5  163.28   43.90
   1  -1  -5  149.39   47.90
  -1   2   5 1358.56  110.09
  -1   2   5 1154.28   70.39
  -1   2   5 1064.29  120.19
  -1   2   5 1147.49   81.49
   1  -2  -5 1048.00  128.29
   1  -2  -5 1136.69   70.29
  -1   3   5   -0.10    5.10
  -1   3   5   10.70    8.00
   1  -3  -5    6.20    4.00
   1  -3  -5    5.00   21.10
   1  -3  -5    0.60    7.40
  -1   4   5  284.07   38.70
   1  -4  -5  263.57   36.50
   1  -4  -5  306.57   80.49
   1  -4  -5  324.57   28.30
  -1   5   5    9.30   11.30
   1  -5  -5   21.20   11.30
   1  -5  -5   38.80   19.20
   1  -5  -5   13.50   25.20
  -1   6   5   62.09   22.00
   1  -6  -5   26.10   27.40
   1  -6  -5   44.10   12.90
  -1   7   5   19.70   14.90
   1  -7  -5    8.10    8.30
   1  -7  -5   43.90   51.79
  -1   8   5  344.97   42.60
   1  -8  -5  220.98   25.90
   1  -8  -5  115.49   66.09
  -1   9   5   27.60   16.10
   1  -9  -5   13.90   10.00
   1  -9  -5   61.09   50.09
   0  -9   5    4.30    7.90
   0   9  -5   30.70   12.80
   0  -8   5  144.09   29.50
   0   8  -5  155.48   26.80
   0   8  -5  139.69   41.00
   0  -7   5  544.85   50.69
   0   7  -5  491.45   67.19
   0   7  -5  550.44   60.49
   0  -6   5    1.30    5.40
   0   6  -5   18.00   13.80
   0   6  -5   30.70    8.90
   0  -5   5   64.89   15.50
   0   5  -5   97.39   17.10
   0   5  -5  133.39   35.40
   0  -4   5    2.80    7.70
   0  -4   5   18.30    7.80
   0   4  -5    7.50    5.20
   0   4  -5   11.90   11.70
   0  -3   5  629.74   69.89
   0  -3   5  658.43   44.40
   0  -3   5  650.63   45.30
   0   3  -5  653.13   43.00
   0   3  -5  683.43   69.29
   0   3  -5  585.04   48.70
   0  -2   5    7.50    9.20
   0  -2   5    3.00    2.80
   0  -2   5    1.90    2.90
   0   2  -5   16.00   11.10
   0   2  -5    7.70    3.70
   0   2  -5    6.20    3.70
   0  -1   5 6190.48  320.77
   0  -1   5 5555.44  314.27
   0  -1   5 6706.53  355.56
   0   1  -5 6397.46  315.27
   0   1  -5 5722.63  354.56
   0   1  -5 6153.38  313.57
   0   1  -5 6282.87  337.27
   0   0   5    3.40    3.60
   0   0   5    9.70    4.00
   0   0   5    0.40    8.10
   0   0  -5    7.70    7.30
   0   0  -5   -1.40    6.40
   0   0  -5    5.30    2.50
   0   1   5  101.19   17.60
   0   1   5   96.69   11.50
   0   1   5   95.49   34.70
   0  -1  -5  114.99   33.30
   0  -1  -5  105.89   11.90
   0  -1  -5  135.29   14.60
   0   2   5  171.48   19.50
   0   2   5  173.38   31.50
   0  -2  -5  163.78   21.70
   0  -2  -5  159.68   41.90
   0  -2  -5  197.18   18.20
   0   3   5 3255.67  193.58
   0   3   5 3372.66  176.08
   0  -3  -5 2840.02  225.98
   0  -3  -5 3017.50  170.58
   0  -3  -5 2997.90  185.78
   0   4   5  318.67   42.70
   0  -4  -5  382.56   44.90
   0  -4  -5  334.57   63.59
   0  -4  -5  321.57   30.00
   0   5   5  127.09   30.80
   0  -5  -5  179.78   21.60
   0  -5  -5  127.19   51.09
   0   6   5  330.97   43.50
   0  -6  -5  332.57   85.49
   0  -6  -5  305.47   30.90
   0  -7  -5    9.30    5.70
   0  -7  -5  -15.40   21.80
   0   8   5  227.48   43.70
   0  -8  -5  236.98   75.79
   0  -8  -5  198.78   25.10
   0   9   5   41.70   19.90
   0  -9  -5   43.50   41.10
   0  -9  -5   16.30    9.20
   1  -9   5  100.39   34.90
  -1   9  -5  116.89   40.10
  -1   9  -5  149.29   26.00
  -1   8  -5   68.69   16.90
  -1   8  -5   87.09   36.60
  -1   7  -5  164.68   46.30
  -1   7  -5  204.68   25.30
   1  -6   5  422.06   42.50
  -1   6  -5  417.86   38.50
  -1   6  -5  451.75   58.79
   1  -5   5  460.75   44.40
  -1   5  -5  561.74   43.60
  -1   5  -5  590.74   65.19
  -1   4  -5   45.70   11.50
  -1   4  -5   11.30   13.60
   1  -3   5  143.89   28.10
   1  -3   5  118.49   23.10
  -1   3  -5  101.89   27.30
  -1   3  -5  158.08   17.30
  -1   3  -5  137.29   16.20
   1  -2   5 1183.08   88.19
   1  -2   5 1166.68   77.89
   1  -2   5 1170.68   70.29
  -1   2  -5 1248.78   69.99
  -1   2  -5 1204.28   96.59
  -1   2  -5  986.10   75.69
   1  -1   5    7.70    5.20
   1  -1   5   29.00   12.60
   1  -1   5   12.90    4.70
  -1   1  -5   13.20    4.70
  -1   1  -5    7.60    4.00
  -1   1  -5   -4.00    8.60
   1   0   5  581.24   45.20
   1   0   5  578.54   65.69
   1   0   5  619.64   39.20
  -1   0  -5  594.84   38.00
  -1   0  -5  606.74   44.00
   1   1   5   64.19   15.60
   1   1   5   54.99   10.20
   1   1   5   42.20   25.50
  -1  -1  -5   58.19   10.00
  -1  -1  -5   43.50   12.20
   1   2   5  121.59   15.50
   1   2   5  199.58   33.80
  -1  -2  -5  154.98   16.00
  -1  -2  -5  128.19   24.00
   1   3   5  118.19   20.40
   1   3   5  142.59   33.60
  -1  -3  -5  131.39   34.40
  -1  -3  -5  156.68   30.00
  -1  -3  -5  165.58   19.20
   1   4   5   10.80   12.50
  -1  -4  -5   13.90   13.10
  -1  -4  -5   13.40   14.10
  -1  -4  -5   20.40    7.90
   1   5   5   45.80   19.50
  -1  -5  -5   74.19   29.30
  -1  -5  -5   71.79   16.70
   1   6   5  114.29   28.00
  -1  -6  -5   82.09   17.40
  -1  -6  -5   57.29   29.40
   1   7   5    6.60   11.00
  -1  -7  -5    5.50    5.40
  -1  -7  -5   11.80   16.30
   1   8   5  445.26   53.99
  -1  -8  -5  388.06   74.19
  -1  -8  -5  407.66   37.40
   1   9   5   28.30   15.20
  -1  -9  -5    6.00    7.20
  -1  -9  -5   24.70   24.20
   2  -8   5  168.48   40.70
  -2   8  -5  124.39   27.20
  -2   8  -5  149.99   41.10
   2  -7   5  417.36   53.79
  -2   7  -5  395.36   56.19
  -2   7  -5  459.35   42.50
   2  -6   5  252.87   46.80
  -2   6  -5  374.96   37.10
  -2   6  -5  462.95   47.10
   2  -5   5   18.80    9.20
  -2   5  -5   -6.20    3.70
  -2   5  -5   18.10   13.70
  -2   5  -5    7.70   11.20
   2  -4   5  212.78   37.40
  -2   4  -5  183.48   37.80
  -2   4  -5  181.08   21.30
  -2   4  -5  136.49   32.50
   2  -3   5 2141.79  132.79
   2  -3   5 2262.57  138.79
  -2   3  -5 2230.18  148.39
  -2   3  -5 2089.09  124.19
   2  -2   5  797.72   61.69
   2  -2   5  775.52   60.19
  -2   2  -5  685.23   48.80
  -2   2  -5  707.43   48.70
  -2   2  -5  725.93   79.39
  -2   2  -5  698.83   66.49
   2  -1   5 2733.73  149.59
   2  -1   5 2826.62  161.68
   2  -1   5 2688.33  171.38
  -2   1  -5 2725.63  156.58
  -2   1  -5 2602.74  177.28
  -2   1  -5 2761.82  148.59
   2   0   5   29.70   11.20
   2   0   5   55.19   21.80
  -2   0  -5   45.20   13.10
  -2   0  -5   45.30    9.60
   2   1   5 1382.36   92.49
   2   1   5 1277.67   78.59
  -2  -1  -5 1322.27   90.59
  -2  -1  -5 1399.26   78.49
   2   2   5   61.79   20.50
   2   2   5   62.29   12.50
  -2  -2  -5   44.60   16.30
  -2  -2  -5   63.29   11.60
   2   3   5 5341.77  322.17
   2   3   5 5581.04  296.87
  -2  -3  -5 6108.69  327.37
  -2  -3  -5 5345.87  294.17
   2   4   5    3.10   12.90
   2   5   5  637.84   69.19
  -2  -5  -5  683.53   75.89
  -2  -5  -5  595.64   49.80
   2   6   5   75.89   23.60
  -2  -6  -5   52.09   14.40
  -2  -6  -5   27.20   18.60
   2   7   5 1436.16  121.09
  -2  -7  -5 1693.43  147.99
  -2  -7  -5 1595.44  102.69
   2   8   5   39.90   17.80
  -2  -8  -5   55.79   34.80
  -2  -8  -5   34.70   11.80
   2   9   5   54.89   24.70
  -2  -9  -5   35.50   20.70
  -2  -9  -5   12.10    9.10
   2  10   5    9.40   13.70
  -2 -10  -5   -3.60    5.90
  -2 -10  -5   -3.00   23.80
   3  -8   5   87.19   32.60
  -3   8  -5   94.39   22.00
   3  -7   5   14.80   18.20
  -3   7  -5    2.30    6.80
   3  -6   5   -4.60   13.80
  -3   6  -5   39.50   27.50
  -3   6  -5    6.40    7.10
  -3   6  -5    7.60   16.50
   3  -5   5  139.29   33.10
  -3   5  -5   99.89   28.30
  -3   5  -5   84.99   31.40
   3  -4   5    6.60   10.40
  -3   4  -5    7.50   11.50
  -3   4  -5   37.30   20.10
  -3   4  -5    7.90    6.80
   3  -3   5  348.07   40.10
  -3   3  -5  307.37   38.70
  -3   3  -5  267.57   51.99
  -3   3  -5  297.17   28.60
   3  -2   5  358.36   34.40
   3  -2   5  363.16   40.30
  -3   2  -5  336.27   60.39
  -3   2  -5  343.07   29.80
   3  -1   5   62.29   19.10
   3  -1   5   90.59   21.50
  -3   1  -5  144.79   21.10
   3   0   5  609.04   63.79
   3   0   5  584.24   42.60
   3   0   5  603.54   53.49
  -3   0  -5  633.14   52.49
  -3   0  -5  602.04   41.80
   3   1   5  738.23   62.89
   3   1   5  737.33   49.90
  -3  -1  -5  777.52   49.50
  -3  -1  -5  725.03   62.09
   3   2   5  589.44   43.70
   3   2   5  598.24   60.59
  -3  -2  -5  686.33   44.70
  -3  -2  -5  652.93   61.39
   3   3   5   10.60   13.50
  -3  -3  -5    4.90    4.60
   3   4   5  777.52   80.89
  -3  -4  -5  761.02   54.99
   3   5   5  178.78   43.00
  -3  -5  -5  179.48   24.10
   3   6   5   26.80   14.70
  -3  -6  -5    6.00    6.50
   3   7   5   -3.90   13.10
  -3  -7  -5   21.50   16.40
  -3  -7  -5   35.70   10.80
   3   8   5   25.80   12.70
  -3  -8  -5   -3.00    6.00
   3   9   5   14.90   12.50
  -3  -9  -5   22.20   21.30
  -3  -9  -5    3.60    6.40
   3  10   5   38.10   22.90
  -3 -10  -5   75.39   35.60
  -3 -10  -5   27.30   12.20
   4  -7   5  -18.20   12.90
  -4   7  -5    1.10    8.80
   4  -6   5  150.28   36.80
  -4   6  -5  214.18   27.40
  -4   6  -5  207.78   32.90
   4  -5   5  344.87   56.29
  -4   5  -5  351.96   35.30
   4  -4   5  182.68   36.00
  -4   4  -5  217.58   24.50
   4  -3   5  127.59   28.00
  -4   3  -5  150.98   19.60
   4  -2   5  887.21   74.09
  -4   2  -5  879.61   59.99
   4  -1   5  473.95   41.00
   4  -1   5  504.25   49.70
  -4   1  -5  433.96   75.89
  -4   1  -5  436.56   35.80
   4   0   5  458.85   51.99
   4   0   5  545.45   50.59
  -4   0  -5  428.56   34.70
   4   1   5  228.88   39.20
  -4  -1  -5  186.28   19.50
   4   2   5  249.97   44.90
  -4  -2  -5  139.19   16.70
   4   3   5  419.46   54.89
  -4  -3  -5  367.76   31.70
   4   4   5  237.48   51.59
  -4  -4  -5  206.38   23.40
   4   5   5   27.50   19.90
  -4  -5  -5   20.10    9.20
   4   6   5  197.48   44.50
  -4  -6  -5  208.18   27.20
   4   8   5   47.10   24.70
  -4  -8  -5   33.30   11.60
  -4  -8  -5   16.00   14.00
   4   9   5   18.20   15.10
  -4  -9  -5    2.80   14.80
  -4  -9  -5   16.10    9.20
  -4 -10  -5  107.99   42.60
  -4 -10  -5  140.29   24.80
   5  -6   5  102.49   30.60
  -5   6  -5  104.29   23.80
   5  -5   5   22.50   20.50
  -5   5  -5   34.50   13.20
   5  -4   5   15.70   13.20
  -5   4  -5   -4.70    6.50
   5  -3   5  100.49   24.70
  -5   3  -5   78.19   16.20
   5  -2   5   12.10    9.40
   5  -1   5   35.70   14.90
   5  -1   5   22.70    6.80
  -5   1  -5   20.60    7.40
   5   0   5 1099.09   86.69
   5   0   5 1206.48   92.39
  -5   0  -5 1147.89   72.49
   5   1   5  671.63   65.39
  -5  -1  -5  661.33   47.20
   5   2   5   65.39   24.70
  -5  -2  -5   68.69   14.10
   5   3   5    7.70   13.10
  -5  -3  -5    7.50    5.20
   5   4   5 3354.06  222.68
  -5  -4  -5 3295.77  184.78
   5   5   5  339.67   61.89
  -5  -5  -5  397.06   36.30
   5   6   5  153.78   38.80
  -5  -6  -5  209.78   25.80
   5   7   5   21.60   12.80
  -5  -7  -5   22.10    9.50
   5   8   5  648.54   72.09
  -5  -8  -5  567.94   52.89
   5   9   5    2.20   11.20
  -5  -9  -5   -1.30   13.40
  -5  -9  -5   16.00    9.90
   5  10   5  401.66   53.09
  -5 -10  -5  347.77   60.79
  -5 -10  -5  406.76   40.70
   6  -5   5   59.99   25.40
   6  -4   5   10.20   17.90
  -6   4  -5    7.60    7.30
   6  -3   5  -18.20    9.10
  -6   3  -5    6.40    5.40
   6  -2   5  175.78   38.20
  -6   2  -5  174.78   21.80
   6  -1   5 1264.17   97.89
  -6   1  -5 1136.69   76.39
   6   0   5    6.80   10.60
   6   0   5   16.60   12.50
  -6   0  -5    5.20    4.20
   6   1   5    9.30   14.90
  -6  -1  -5   30.30    8.30
   6   2   5  387.46   52.29
  -6  -2  -5  344.87   30.80
   6   3   5  470.75   60.09
  -6  -3  -5  433.46   36.00
   6   4   5   95.99   36.20
  -6  -4  -5  111.59   19.60
   6   5   5  360.16   63.09
  -6  -5  -5  330.67   32.60
   6   6   5   25.30   15.80
  -6  -6  -5    5.40    6.10
   6   7   5   91.59   29.60
  -6  -7  -5   88.59   20.10
   6   8   5  164.08   40.50
  -6  -8  -5  220.58   29.20
   6   9   5  134.49   34.10
   7  -4   5   -7.00   17.80
  -7   4  -5    7.50    7.30
   7  -3   5   16.80   19.00
  -7   3  -5    2.10    5.90
   7  -2   5   43.70   21.90
  -7   2  -5   70.99   16.10
   7  -1   5  121.59   33.90
  -7   1  -5  165.48   20.10
   7   0   5   -7.80   11.10
  -7   0  -5   22.00   13.20
   7   1   5  306.47   31.00
   7   1   5  276.77   50.69
  -7  -1  -5  303.17   29.10
   7   2   5   55.39   29.10
  -7  -2  -5   82.89   15.40
   7   3   5   34.60   21.60
  -7  -3  -5   53.79   12.20
   7   4   5  391.96   63.49
  -7  -4  -5  403.36   35.10
   7   5   5  338.97   60.29
  -7  -5  -5  353.76   33.60
   7   6   5   -0.60   16.30
  -7  -6  -5   -0.30    5.70
   7   7   5    2.80   16.40
  -7  -7  -5   14.30    7.30
   7   8   5  334.77   54.79
  -7  -8  -5  350.66   39.70
   7   9   5   -5.60   14.40
  -7  -9  -5   26.50   12.90
   8  -3   5   69.39   25.80
  -8   3  -5   70.99   15.20
   8  -2   5    5.50   16.20
  -8   2  -5   12.00    8.30
   8  -1   5   16.30   18.90
  -8   1  -5   21.30    7.90
   8   0   5  131.69   36.80
  -8   0  -5  100.19   18.00
   8   1   5  153.38   20.60
   8   1   5   88.99   41.40
   8   1   5  144.19   41.10
  -8  -1  -5  186.78   21.40
   8   2   5   75.09   33.60
   8   2   5   69.29   18.70
  -8  -2  -5  128.99   19.80
   8   3   5  228.28   47.40
   8   3   5  114.79   27.80
  -8  -3  -5  133.79   21.60
   8   4   5  -19.70   17.20
  -8  -4  -5   -2.00    5.10
   8   5   5    3.40   15.10
  -8  -5  -5    8.80    6.40
   8   6   5   35.10   19.10
  -8  -6  -5   38.70   11.60
   8   7   5   31.00   18.10
  -8  -7  -5   47.60   15.40
   8   8   5  136.49   30.80
  -8  -8  -5   89.99   20.00
   9  -1   5    3.90   26.80
  -9   1  -5    0.70    6.20
   9   0   5   67.79   30.80
  -9   0  -5   69.69   15.90
   9   1   5   57.19   25.70
   9   2   5  103.89   24.70
  -9  -2  -5  139.99   22.50
   9   3   5   25.30   14.30
  -9  -3  -5    3.70    6.00
   9   4   5    7.20   20.80
   9   4   5   28.10   15.50
  -9  -4  -5    5.80    6.50
   9   5   5  326.07   54.59
  -9  -5  -5  231.08   27.40
   9   6   5  253.87   51.59
   9   6   5  332.57   45.50
  -9  -6  -5  321.07   33.10
   9   7   5  -18.00   13.00
   9   7   5   43.60   17.90
  -9  -7  -5    3.80    8.40
  10   2   5   30.00   30.20
 -10  -2  -5    7.30    7.50
  10   3   5   28.80   25.70
  10   4   5   30.20   23.90
  10   4   5   57.69   25.80
 -10  -4  -5   22.30   10.30
  10   5   5  143.49   37.70
  10   5   5   55.09   28.50
 -10  -5  -5  115.99   19.60
  -9  -7   6   21.90   11.20
   9   7  -6   43.20   33.60
  -9  -6   6    6.80    8.60
   9   6  -6   22.80   23.30
  -9  -5   6  230.88   24.30
   9   5  -6  178.08   52.69
  -9  -4   6  205.68   20.50
   9   4  -6  204.78   55.49
  -9  -3   6   12.40    7.80
   9   3  -6   12.20   27.70
  -9  -2   6   10.90    6.20
   9   2  -6   -5.60   23.40
  -9  -1   6  154.58   16.40
   9   1  -6  131.99   48.40
  -9   0   6   16.90    5.70
  -8  -8   6   -8.00   10.10
   8   8  -6   14.60   29.10
   8   7  -6  -20.20   21.00
  -8  -6   6   73.59   15.80
   8   6  -6   65.09   33.60
  -8  -5   6   -5.80    5.10
   8   5  -6  -12.70   19.00
  -8  -4   6   22.50    7.00
   8   4  -6  -14.30   18.30
  -8  -3   6   33.90    7.90
   8   3  -6   55.39   27.40
  -8  -2   6   85.09   12.00
   8   2  -6   43.50   28.50
   8   1  -6   38.10   27.30
  -8   0   6   30.00    7.50
  -8   1   6  101.89   15.60
  -8   2   6  112.19   17.90
   8  -2  -6   85.99   60.69
  -7  -9   6  137.69   23.60
   7   9  -6  112.09   42.20
  -7  -8   6   42.90   13.10
   7   8  -6   34.20   28.50
  -7  -7   6  149.29   24.70
   7   7  -6  126.09   39.80
  -7  -6   6   76.49   16.80
   7   6  -6   46.70   28.00
  -7  -5   6   20.80    8.90
   7   5  -6   -6.60   14.00
  -7  -4   6  538.45   38.60
   7   4  -6  551.74   76.39
  -7  -3   6   84.99   20.60
  -7  -3   6   84.49   10.80
   7   3  -6   83.59   28.60
  -7  -2   6  236.78   18.60
  -7  -2   6  237.68   26.70
   7   2  -6  250.47   56.79
  -7  -1   6  155.78   13.70
  -7  -1   6  139.59   19.30
   7   1  -6  125.89   40.30
  -7   0   6  462.45   30.70
  -7   0   6  461.15   35.20
   7   0  -6  440.66   67.29
   7   0  -6  359.26   99.09
  -7   1   6   -3.50    4.60
   7  -1  -6   -8.00   22.50
  -7   2   6  234.18   23.90
   7  -2  -6  187.48   75.39
  -7   3   6    3.20    8.30
   7  -3  -6  -19.20   30.10
  -7   4   6   17.30    8.90
   7  -4  -6   -2.50   42.00
  -6  -9   6   32.10   10.00
   6   9  -6  -16.80   19.10
  -6  -8   6   48.10   13.60
   6   8  -6   12.00   19.90
  -6  -7   6   13.20    8.30
   6   7  -6    0.20   14.10
  -6  -6   6   63.79   14.80
   6   6  -6   69.69   34.30
  -6  -5   6   84.09   21.20
   6   5  -6   69.09   26.80
  -6  -4   6  366.66   30.20
  -6  -4   6  362.26   35.30
   6   4  -6  443.86   64.39
  -6  -3   6   15.30    4.60
  -6  -3   6   16.70    8.50
   6   3  -6    4.60   13.60
   6   2  -6  219.98   52.79
   6   1  -6   13.60   29.40
   6   1  -6   23.90   16.00
  -6   0   6   18.10    6.60
  -6   0   6   16.60    4.80
   6   0  -6   12.80   19.80
   6   0  -6    4.70   19.50
  -6   1   6   20.70    5.40
  -6   1   6   14.10    5.80
  -6   2   6  755.22   51.19
  -6   3   6   16.30    7.30
   6  -3  -6   -6.10   34.20
  -6   4   6   15.80    8.00
   6  -4  -6  -18.70   37.90
  -6   5   6   46.90   13.50
   6  -5  -6   85.99   53.19
  -5  -9   6  672.83   56.69
   5   9  -6  720.03   48.90
   5   9  -6  695.13   93.79
  -5  -8   6   13.30    8.40
   5   8  -6    1.30   18.20
   5   8  -6    2.90    4.80
  -5  -7   6  750.22  104.89
  -5  -7   6  905.11   66.69
   5   7  -6  929.81   52.59
   5   7  -6  908.51  105.09
   5   7  -6  902.21   51.89
  -5  -6   6   12.30   24.80
  -5  -6   6   19.50    7.50
   5   6  -6    7.40   28.20
  -5  -5   6  591.14   86.49
  -5  -5   6  497.15   42.30
   5   5  -6  619.44   80.09
  -5  -4   6    6.50    6.10
  -5  -4   6   23.60    7.60
   5   4  -6   -5.00   10.00
  -5  -3   6 2857.11  153.58
  -5  -3   6 2748.53  150.78
   5   3  -6 2985.50  210.68
   5   2  -6    9.60   22.00
   5   2  -6   11.60   13.60
   5   1  -6   57.39   23.70
   5   1  -6  -13.80   22.60
   5   0  -6  135.29   56.09
   5   0  -6  266.27   55.09
  -5   1   6  471.25   28.00
  -5   1   6  365.06   28.30
   5  -1  -6  289.47   83.89
  -5   2   6    9.80    5.80
  -5   2   6   16.30    7.10
   5  -2  -6   -3.50   26.10
  -5   3   6   68.29   14.80
   5  -3  -6   69.19   44.70
  -5   4   6   87.09   16.60
   5  -4  -6   25.80   51.69
  -5   5   6   15.50   10.20
   5  -5  -6  -14.40   46.60
  -5   6   6   30.50   11.40
  -4 -10   6   -7.70    8.20
   4  10  -6    6.60    8.60
  -4  -9   6   -5.10    5.80
   4   9  -6  -18.00   21.90
  -4  -8   6   59.59   14.90
   4   8  -6   69.19   13.50
   4   8  -6   57.29   26.80
  -4  -7   6  170.08   28.00
   4   7  -6  212.18   19.50
   4   7  -6  151.08   48.30
  -4  -6   6  510.05   61.99
  -4  -6   6  469.15   41.90
   4   6  -6  487.55   33.20
   4   6  -6  528.65   33.30
   4   6  -6  474.65   70.19
  -4  -5   6   25.20   24.20
  -4  -5   6   39.30   13.60
   4   5  -6   11.30   16.60
  -4  -4   6    9.50    5.50
  -4  -4   6    1.60    4.60
  -4  -4   6  -21.10   15.90
   4   4  -6   14.30   15.60
  -4  -3   6  371.86   29.40
  -4  -3   6  418.76   28.00
  -4  -3   6  484.25   73.39
   4   3  -6  372.06   58.09
  -4  -2   6  624.44   89.69
   4   2  -6  452.35   77.19
   4   2  -6  497.45   67.39
   4   1  -6  197.38   57.99
   4   1  -6  166.08   85.69
  -4   0   6   11.20   20.70
   4   0  -6    2.90   19.70
   4   0  -6   41.10   20.40
  -4   1   6  684.73   37.80
  -4   1   6  513.95   70.29
  -4   2   6  399.26   34.00
  -4   2   6  514.55   31.60
   4  -2  -6  300.87   94.29
  -4   3   6  412.36   35.10
   4  -3  -6  266.17   93.49
  -4   4   6   16.60   10.80
   4  -4  -6    8.70   41.50
  -4   5   6  272.67   30.80
   4  -5  -6  224.48   86.79
  -4   6   6  325.97   34.60
   4  -6  -6  283.27  113.39
  -4   7   6  110.69   23.70
   4  -7  -6   82.99   86.69
  -3 -10   6  127.69   26.30
   3  10  -6  132.29   50.09
   3  10  -6  133.49   22.20
  -3  -9   6   19.10   11.60
   3   9  -6    5.20   29.50
   3   9  -6   14.20    8.30
  -3  -8   6   -4.40    5.80
   3   8  -6   -9.10   15.30
   3   8  -6    6.80    6.20
  -3  -7   6   49.50   11.80
  -3  -6   6    8.80    6.60
   3   6  -6   -2.10   11.00
   3   6  -6    0.90    8.90
  -3  -5   6  169.08   20.30
   3   5  -6  146.59   42.60
   3   5  -6  155.98   14.60
   3   5  -6  157.68   17.20
  -3  -4   6    5.50    4.60
  -3  -4   6    0.00    4.30
   3   4  -6    2.80   10.70
  -3  -3   6 1803.52   98.29
  -3  -3   6 1815.72  100.79
  -3  -3   6 1649.13  137.49
   3   3  -6 1859.91  150.28
  -3  -2   6  402.26   56.49
  -3  -2   6  302.57   19.20
   3   2  -6  230.98   55.89
   3   2  -6  244.38   53.49
  -3  -1   6   19.50   19.10
  -3  -1   6   -0.70    7.60
   3   1  -6   17.10   21.00
   3   1  -6   39.40   21.00
  -3   0   6  143.09   43.40
  -3   0   6  144.09   36.70
   3   0  -6   84.29   38.10
   3   0  -6   97.09   33.00
  -3   1   6 1710.43   81.69
  -3   1   6 1428.56  125.19
   3  -1  -6 1216.58  153.48
  -3   2   6  340.07   24.50
  -3   2   6  336.47   53.29
  -3   2   6  300.57   31.10
   3  -2  -6  211.78   72.59
  -3   3   6   91.89   15.10
  -3   3   6   75.99   16.60
   3  -3  -6   47.40   40.00
   3  -4  -6   60.49   38.10
  -3   5   6   -1.40    6.60
   3  -5  -6    7.30   51.59
   3  -5  -6    4.10   11.20
   3  -6  -6  -34.60   40.80
   3  -6  -6   -5.50    8.70
  -3   7   6   26.40   11.80
   3  -7  -6   28.60   52.69
   3  -7  -6   24.00   12.00
  -3   8   6    6.00   11.30
   3  -8  -6  -83.49   44.20
  -2  -9   6   35.40   16.60
   2   9  -6   22.20   10.30
   2   9  -6   33.70   30.30
  -2  -8   6  111.49   24.90
   2   8  -6  145.49   19.10
   2   8  -6   56.59   29.80
  -2  -7   6  126.19   24.40
   2   7  -6   94.99   33.90
   2   7  -6  160.88   19.30
  -2  -6   6 1479.75   95.09
   2   6  -6 1471.65   88.39
   2   6  -6 1464.75  133.99
  -2  -5   6   12.60    6.40
   2   5  -6   39.50   18.50
   2   5  -6   21.50    6.30
   2   5  -6   11.60   11.70
  -2  -4   6  311.07   30.00
  -2  -4   6  365.26   29.10
   2   4  -6  302.97   23.20
   2   4  -6  363.16   55.39
   2   4  -6  304.97   29.10
  -2  -3   6  172.58   17.10
  -2  -3   6  166.08   16.70
  -2  -3   6  235.08   27.60
   2   3  -6  183.88   13.50
   2   3  -6  196.78   20.70
  -2  -2   6 5186.08  309.07
  -2  -2   6 4998.40  263.87
  -2  -2   6 5116.99  263.47
   2   2  -6 5321.27  322.07
  -2  -1   6   27.70   17.20
  -2  -1   6   42.30    5.20
  -2  -1   6   68.09   23.20
  -2  -1   6   53.99    5.40
   2   1  -6   61.69   26.60
   2   1  -6   40.70   22.10
  -2   0   6 1971.30  153.38
  -2   0   6 2269.67  161.88
   2   0  -6 2159.98  160.78
   2   0  -6 1684.83  164.08
  -2   1   6   19.90   23.40
  -2   1   6   27.90   18.90
  -2   1   6   59.69   11.60
  -2   1   6   50.69    7.90
   2  -1  -6   13.20   24.90
  -2   2   6 2177.38  135.99
  -2   2   6 2390.36  123.79
  -2   2   6 2328.57  181.18
   2  -2  -6 1973.60  210.28
  -2   3   6  400.36   42.20
  -2   3   6  407.46   32.60
  -2   4   6 1137.89  111.19
   2  -4  -6  894.11  149.39
   2  -4  -6 1199.38   72.39
   2  -4  -6  945.71   64.29
  -2   5   6  205.68   34.10
   2  -5  -6  110.59   57.49
   2  -5  -6  211.58   31.70
  -2   6   6   28.60   12.90
   2  -6  -6  -30.00   29.00
  -2   7   6  175.78   32.50
   2  -7  -6  172.68   28.20
   2  -7  -6  129.89   56.59
  -2   8   6   76.19   22.70
   2  -8  -6   83.09   21.80
   2  -8  -6  107.99   68.09
   1   9  -6   -6.20   22.10
   1   9  -6    9.30    8.90
  -1  -8   6   43.70   14.40
   1   8  -6   21.50   12.50
   1   8  -6   22.50   25.00
  -1  -7   6  717.63   58.09
   1   7  -6  700.03   52.09
   1   7  -6  631.54   84.39
  -1  -6   6  127.99   23.70
   1   6  -6  173.78   20.00
   1   6  -6  159.68   45.90
  -1  -5   6   34.70   11.00
   1   5  -6   17.30   18.30
   1   5  -6   27.60    7.90
  -1  -4   6  254.37   27.20
   1   4  -6  254.57   53.19
   1   4  -6  266.47   27.60
   1   4  -6  229.18   21.10
  -1  -3   6  627.04   42.30
  -1  -3   6  608.54   63.99
  -1  -3   6  592.54   41.30
   1   3  -6  563.54   37.90
   1   3  -6  700.83   46.50
   1   3  -6  529.35   66.59
  -1  -2   6   35.10   18.30
  -1  -2   6   45.70    8.90
  -1  -2   6   54.59    9.50
   1   2  -6   11.50   14.60
   1   2  -6   44.10    8.90
   1   2  -6   25.10   14.60
   1   2  -6   40.50    6.40
  -1  -1   6  374.76   24.90
  -1  -1   6  487.35   50.69
  -1  -1   6  332.07   47.00
   1   1  -6  347.77   51.49
   1   1  -6  327.37   47.30
  -1   0   6   32.20   20.60
  -1   0   6   41.90   17.90
  -1   0   6   28.30    5.60
  -1   0   6   25.00    7.10
   1   0  -6   60.79   26.40
   1   0  -6   21.90   14.70
  -1   1   6  846.72   56.59
  -1   1   6  824.82   93.59
  -1   1   6 1079.49  109.79
  -1   1   6  848.82   52.99
   1  -1  -6  799.82  102.49
  -1   2   6    9.00    4.20
  -1   2   6    6.20   10.30
  -1   2   6   -6.20    7.90
  -1   2   6    1.60   13.30
   1  -2  -6    6.30   12.80
  -1   3   6  363.26   31.00
  -1   3   6  303.87   38.00
   1  -3  -6  301.67   24.10
   1  -3  -6  223.38   68.69
   1  -3  -6  344.17   30.80
  -1   4   6   17.60   13.60
   1  -4  -6    4.50   16.30
   1  -4  -6   25.90    8.00
   1  -4  -6   59.39   15.90
  -1   5   6  423.06   47.10
   1  -5  -6  380.36   43.30
   1  -5  -6  360.06  100.49
   1  -5  -6  367.36   32.00
  -1   6   6   69.89   19.70
   1  -6  -6   90.99   54.59
   1  -6  -6   82.79   17.80
  -1   7   6   71.99   20.70
   1  -7  -6   32.90   11.10
   1  -7  -6  -14.50   21.80
  -1   8   6   49.20   18.00
   1  -8  -6   47.10   42.10
  -1   9   6  -13.80   10.80
   1  -9  -6  -28.30   34.90
   1  -9  -6    8.00    7.90
   0  -9   6   50.89   17.10
   0   9  -6   51.79   16.00
   0   9  -6   35.60   34.10
   0  -8   6   33.30   11.90
   0   8  -6   58.59   34.00
   0   8  -6   31.90   11.50
   0  -7   6  199.08   34.20
   0   7  -6  216.08   54.39
   0   7  -6  240.88   27.30
   0  -6   6  234.88   28.70
   0   6  -6  249.08   53.69
   0   6  -6  277.37   27.50
   0  -5   6  231.08   26.00
   0   5  -6  216.18   48.10
   0   5  -6  209.08   22.90
   0  -4   6   23.60    7.10
   0   4  -6   27.70    7.90
   0   4  -6   27.90   18.40
   0  -3   6   83.89   24.90
   0  -3   6   90.29   17.20
   0  -3   6  104.59   14.00
   0   3  -6   89.09   12.10
   0   3  -6   95.99   15.50
   0   3  -6   91.29   28.00
   0  -2   6 3311.57  216.68
   0   2  -6 3036.60  171.78
   0   2  -6 3298.27  170.58
   0   2  -6 3291.97  215.38
   0  -1   6   12.10    6.20
   0  -1   6   15.40    4.90
   0  -1   6    5.60   13.50
   0   1  -6    4.70   10.70
   0   1  -6   12.20    4.50
   0   1  -6   15.70   11.00
   0   1  -6   18.70    4.80
   0   0   6  161.58   41.10
   0   0   6  181.48   15.80
   0   0   6  187.88   20.10
   0   0  -6  162.48   14.60
   0   0  -6  185.58   14.50
   0   0  -6  197.48   33.00
   0   0  -6  181.68   44.50
   0   1   6    8.50    6.50
   0   1   6   10.40   13.80
   0   1   6   15.60    6.00
   0  -1  -6    1.60   10.80
   0  -1  -6   -3.80    4.10
   0  -1  -6   -2.00    2.90
   0   2   6 3977.70  214.38
   0   2   6 3852.41  226.18
   0   2   6 3975.20  282.57
   0  -2  -6 4077.89  211.38
   0  -2  -6 4379.56  274.57
   0  -2  -6 3654.03  215.88
   0   3   6   71.79   22.50
   0   3   6  115.89   19.80
   0  -3  -6  123.69   15.20
   0  -3  -6  113.69   56.09
   0  -3  -6   99.79   23.60
   0   4   6  647.44   72.39
   0  -4  -6  450.15   59.19
   0  -4  -6  538.25   81.39
   0  -4  -6  498.25   39.70
   0   5   6  104.59   27.70
   0  -5  -6  106.59   44.20
   0  -5  -6  132.29   21.70
   0   6   6  368.96   47.10
   0  -6  -6  389.36   94.09
   0  -6  -6  370.66   33.40
   0   7   6   61.09   18.70
   0  -7  -6   37.90   11.10
   0  -7  -6   25.30   22.70
   0   8   6  452.05   54.39
   0  -8  -6  464.25   40.20
   0  -8  -6  477.95   91.59
   0   9   6   45.90   23.80
   0  -9  -6    9.40    8.10
   0  -9  -6    5.90   39.50
   1  -9   6   18.10   16.70
  -1   9  -6   26.50   11.90
  -1   9  -6   30.70   30.80
   1  -8   6   22.70   16.80
  -1   8  -6   -1.10    6.50
  -1   8  -6   21.30   20.70
  -1   7  -6  158.58   43.70
  -1   7  -6  110.89   20.50
  -1   6  -6   32.60   10.20
  -1   6  -6   20.00   18.50
  -1   5  -6  186.08   42.20
  -1   5  -6  220.78   23.80
   1  -4   6  220.08   36.00
   1  -4   6  162.68   31.70
  -1   4  -6  189.38   20.90
  -1   4  -6  207.48   42.60
   1  -3   6   84.09   22.90
   1  -3   6   68.59   17.00
  -1   3  -6  101.49   31.20
   1  -2   6  283.87   24.60
   1  -2   6  297.77   39.60
   1  -2   6  309.67   31.80
  -1   2  -6  295.17   25.20
  -1   2  -6  288.17   24.10
  -1   2  -6  225.48   46.30
   1  -1   6  917.21   63.39
   1  -1   6  817.02   53.79
   1  -1   6  880.71   81.49
  -1   1  -6  808.82   81.79
  -1   1  -6  832.82   52.59
  -1   1  -6  904.01   54.69
   1   0   6  485.75   34.10
   1   0   6  497.05   41.30
   1   0   6  412.96   57.39
  -1   0  -6  456.65   37.80
  -1   0  -6  534.05   33.60
   1   1   6 1150.08  138.09
   1   1   6 1162.28   77.59
   1   1   6 1075.29   66.39
  -1  -1  -6 1056.29   73.09
  -1  -1  -6 1139.09   65.39
   1   2   6  588.74   43.80
   1   2   6  596.34   54.69
  -1  -2  -6  629.04   51.99
  -1  -2  -6  594.14   41.30
   1   3   6    6.30   11.20
   1   3   6    5.80    5.00
  -1  -3  -6    0.80    9.40
  -1  -3  -6    3.10    4.60
  -1  -3  -6    7.80    7.70
   1   4   6   56.79   23.80
  -1  -4  -6   41.30   11.70
  -1  -4  -6   72.99   30.10
  -1  -4  -6   35.30   18.50
   1   5   6 2515.65  167.08
  -1  -5  -6 2376.26  140.09
  -1  -5  -6 2329.57  190.08
   1   6   6  326.27   45.60
  -1  -6  -6  371.66   66.59
  -1  -6  -6  353.26   34.50
   1   7   6    0.40   11.70
  -1  -7  -6   -2.20    4.10
  -1  -7  -6    3.50   16.60
   1   8   6   69.79   24.60
  -1  -8  -6   23.90   10.40
  -1  -8  -6   33.50   23.30
   1   9   6  182.48   37.40
  -1  -9  -6  185.38   63.39
  -1  -9  -6  219.88   24.90
   2  -8   6   35.90   24.90
  -2   8  -6   18.00   26.70
  -2   8  -6   38.90   18.00
   2  -7   6   23.10   17.60
  -2   7  -6   76.09   18.70
  -2   7  -6   90.49   33.50
   2  -6   6  625.24   65.09
  -2   6  -6  553.44   48.30
  -2   6  -6  707.33   73.49
   2  -5   6   74.49   21.20
  -2   5  -6   90.49   20.90
  -2   5  -6   96.99   17.80
  -2   5  -6   58.29   24.00
   2  -4   6  781.62   68.79
  -2   4  -6  928.81   59.79
  -2   4  -6  825.02   80.69
  -2   4  -6  758.42   71.39
   2  -3   6  287.07   35.10
   2  -3   6  307.07   35.60
  -2   3  -6  251.77   25.00
  -2   3  -6  276.07   41.50
  -2   3  -6  212.68   41.20
   2  -2   6   51.99   18.80
   2  -2   6   55.99   14.60
  -2   2  -6   74.49   15.80
  -2   2  -6   79.39   26.40
   2  -1   6  414.46   40.70
   2  -1   6  393.96   49.20
   2  -1   6  404.56   32.30
  -2   1  -6  396.56   30.90
  -2   1  -6  451.35   38.80
  -2   1  -6  448.76   56.09
   2   0   6 3011.10  156.78
   2   0   6 2721.43  196.58
   2   0   6 2952.60  169.38
  -2   0  -6 2981.40  155.18
  -2   0  -6 2528.55  162.98
   2   1   6   63.99   30.80
   2   1   6   64.89   18.20
   2   1   6   81.29   14.30
  -2  -1  -6   84.39   13.60
   2   2   6  429.86   47.20
   2   2   6  383.06   32.50
  -2  -2  -6  408.36   43.80
  -2  -2  -6  470.95   33.30
   2   3   6   85.09   28.20
  -2  -3  -6   76.89   15.30
  -2  -3  -6   97.79   24.00
   2   4   6  425.66   57.19
  -2  -4  -6  442.36   38.30
   2   5   6   71.79   24.00
  -2  -5  -6   67.39   16.20
  -2  -5  -6   63.29   25.80
   2   6   6   55.39   19.40
  -2  -6  -6   62.29   24.50
  -2  -6  -6   75.89   16.70
   2   7   6   16.00   17.80
  -2  -7  -6   14.60   15.50
  -2  -7  -6   15.10    8.20
   2   8   6   46.50   19.10
  -2  -8  -6   57.49   14.90
  -2  -8  -6   24.40   19.60
   2   9   6    2.10   10.80
  -2  -9  -6    7.30   21.80
  -2  -9  -6    8.00    7.80
   2  10   6   -2.90    9.30
  -2 -10  -6  -38.20   29.20
  -2 -10  -6   22.80    9.70
   3  -7   6   47.80   19.50
  -3   7  -6  -33.90   19.60
  -3   7  -6    1.10    9.10
   3  -6   6    5.80   13.80
  -3   6  -6    3.60   18.00
  -3   6  -6    7.50    6.20
   3  -5   6  415.86   49.10
  -3   5  -6  319.57   32.80
  -3   5  -6  319.67   48.10
  -3   5  -6  332.47   47.70
   3  -4   6  176.28   36.00
  -3   4  -6  137.49   34.60
  -3   4  -6  120.09   20.90
   3  -3   6  105.89   25.70
   3  -3   6  119.49   18.90
  -3   3  -6   97.09   17.60
  -3   3  -6   82.59   24.90
   3  -2   6   37.20   15.10
   3  -2   6   49.40   16.80
  -3   2  -6   44.80   10.30
  -3   2  -6   47.40   26.20
   3  -1   6 1371.06   95.59
   3  -1   6 1386.86  102.29
  -3   1  -6 1252.47   79.49
   3   0   6  505.45   59.99
  -3   0  -6  437.96   38.00
   3   1   6   90.69   23.80
  -3  -1  -6   67.29   12.80
  -3  -1  -6   44.50   16.50
   3   2   6   69.89   24.90
  -3  -2  -6   77.29   14.30
   3   3   6 1194.78  100.39
  -3  -3  -6 1203.18   75.69
   3   4   6   34.90   22.90
  -3  -4  -6   47.30   12.10
   3   5   6 3206.28  212.88
  -3  -5  -6 3074.09  179.78
   3   6   6  122.89   35.00
  -3  -6  -6  153.38   25.50
   3   7   6   87.69   27.80
  -3  -7  -6  100.89   35.00
  -3  -7  -6  101.59   21.00
   3   8   6   23.10   18.30
  -3  -8  -6   45.50   24.80
  -3  -8  -6   38.20   13.40
   3   9   6  551.64   66.09
  -3  -9  -6  711.83   54.99
  -3  -9  -6  661.43   90.09
   3  10   6   23.30   16.60
  -3 -10  -6  -13.70   22.50
  -3 -10  -6   23.20   12.00
   4  -7   6   36.20   28.10
  -4   7  -6  102.19   20.50
   4  -6   6  115.79   33.30
  -4   6  -6  188.28   25.30
   4  -5   6   54.39   24.60
  -4   5  -6   97.39   26.80
  -4   5  -6   90.69   18.00
  -4   4  -6    7.10    5.10
   4  -3   6    8.90   10.20
  -4   3  -6    9.70    5.80
   4  -2   6  551.74   45.40
   4  -2   6  550.84   55.39
  -4   2  -6  549.15   42.60
   4  -1   6  119.39   28.20
   4  -1   6  102.39   22.90
  -4   1  -6   71.59   13.60
   4   0   6 2153.28  148.09
   4   0   6 1892.11  133.39
  -4   0  -6 2031.10  116.79
   4   1   6    9.20    9.30
  -4  -1  -6    5.00    4.00
   4   2   6   -5.50    8.80
  -4  -2  -6   22.30    7.40
   4   3   6  723.73   75.09
  -4  -3  -6  769.52   53.19
   4   4   6 1304.07  114.29
  -4  -4  -6 1282.57   82.89
   4   5   6  -14.20   12.00
  -4  -5  -6    7.70    4.90
   4   6   6   91.09   28.30
  -4  -6  -6  117.59   22.10
   4   7   6  201.38   43.90
  -4  -7  -6  149.09   26.80
   4   8   6  -16.70   13.20
  -4  -8  -6   -5.20   11.10
  -4  -8  -6   -7.00    6.20
  -4  -9  -6   66.99   29.40
  -4  -9  -6   61.09   15.50
   4  10   6    3.60   13.00
  -4 -10  -6    0.10   17.80
  -4 -10  -6   -7.60    6.50
   5  -6   6    8.00   17.60
  -5   6  -6   42.00   15.70
   5  -5   6   38.70   19.10
  -5   5  -6   19.80    9.90
   5  -4   6    0.40   13.90
  -5   4  -6   20.50    8.10
   5  -3   6  469.85   65.49
  -5   3  -6  497.15   41.70
   5  -2   6  -10.40    8.40
  -5   2  -6   -5.90    4.50
   5  -1   6  110.59   27.60
   5  -1   6  106.09   19.30
  -5   1  -6   88.49   15.70
   5   0   6  305.97   42.80
   5   0   6  312.77   41.60
  -5   0  -6  342.47   30.10
   5   1   6 1185.28  100.59
   5   1   6 1312.27  119.89
  -5  -1  -6 1384.06   82.29
   5   2   6   13.20   15.30
  -5  -2  -6   11.20    5.50
   5   3   6   14.10   15.30
  -5  -3  -6   16.00    6.70
   5   4   6   87.19   30.90
  -5  -4  -6   60.29   14.40
   5   5   6  -10.00   14.60
  -5  -5  -6   28.30    9.60
   5   6   6   37.60   23.90
  -5  -6  -6   98.69   21.40
   5   7   6   67.09   24.40
  -5  -7  -6   80.79   18.90
   5   8   6  111.99   32.90
   5   9   6  288.77   53.49
  -5  -9  -6  254.67   58.59
  -5  -9  -6  210.78   34.40
   6  -5   6  206.28   45.30
  -6   5  -6  257.97   29.80
   6  -4   6  247.48   50.09
  -6   4  -6  250.47   29.10
   6  -3   6  170.18   37.60
  -6   3  -6   97.09   18.30
  -6   2  -6    1.90    5.90
   6  -1   6  137.49   31.70
  -6   1  -6  159.48   25.10
   6   0   6   76.99   24.20
   6   0   6   31.80   16.50
  -6   0  -6   49.30   12.80
   6   1   6   -9.80    8.70
  -6  -1  -6    4.30    5.20
   6   2   6  506.15   62.29
  -6  -2  -6  563.54   42.70
   6   3   6  148.49   37.50
  -6  -3  -6  147.29   18.30
   6   4   6  204.68   50.39
  -6  -4  -6  270.77   27.20
   6   5   6   28.00   19.40
  -6  -5  -6   13.10    8.10
   6   6   6  612.64   68.29
  -6  -6  -6  410.96   40.60
   6   7   6  230.88   48.90
  -6  -7  -6  196.98   27.40
   6   8   6    0.80   14.30
  -6  -8  -6    5.30   10.20
  -6  -9  -6    8.80   11.20
   7  -4   6  198.98   43.60
  -7   4  -6  190.38   25.50
   7  -3   6  193.28   42.30
  -7   3  -6  143.99   23.70
   7  -2   6  139.79   32.90
  -7   2  -6  198.58   23.50
   7  -1   6   -5.20   13.60
  -7   1  -6    8.70    4.30
   7   0   6   11.20    6.40
   7   0   6   30.00   18.20
  -7   0  -6   10.10    6.80
   7   1   6  994.50   88.29
   7   1   6  806.42   81.39
  -7  -1  -6  878.91   61.29
   7   2   6  108.29   34.60
   7   3   6  140.19   35.40
  -7  -3  -6  126.09   28.20
   7   4   6   46.20   28.50
  -7  -4  -6   45.40   12.00
   7   5   6  577.64   72.09
  -7  -5  -6  625.94   49.30
   7   6   6   -9.40   13.30
  -7  -6  -6   16.10    6.60
   7   7   6  438.56   68.89
  -7  -7  -6  348.27   37.60
   7   8   6   16.40   16.20
  -7  -8  -6   14.60    9.60
   7   9   6   35.90   18.00
  -7  -9  -6   30.80   12.70
   8  -2   6   59.99   27.40
   8  -1   6  152.98   39.50
  -8   1  -6  171.78   22.20
   8   0   6  105.79   32.80
  -8   0  -6   60.39   15.50
   8   1   6   -3.70   22.60
   8   1   6  -12.70    7.10
  -8  -1  -6    2.50    5.50
   8   2   6    4.80   10.60
   8   2   6   59.89   22.00
  -8  -2  -6   37.60   11.50
   8   3   6   13.70   20.20
  -8  -3  -6   -3.90    4.60
   8   4   6    5.40   19.00
   8   5   6   70.09   26.00
   8   6   6   82.09   29.40
  -8  -6  -6  168.88   26.20
   8   7   6  116.69   30.20
  -8  -7  -6   96.69   20.30
   8   8   6   28.30   19.50
  -8  -8  -6   16.20    8.90
   9  -1   6  -15.60   22.90
  -9   1  -6    9.80    8.50
   9   0   6   74.09   32.00
   9   1   6   29.50   27.30
  -9  -1  -6   88.19   17.60
   9   2   6  624.84   76.09
  -9  -2  -6  537.55   45.10
   9   3   6   11.60   26.20
   9   3   6   28.00   18.30
  -9  -3  -6   26.90    9.80
   9   4   6    4.20   11.90
   9   4   6   -8.80   19.50
  -9  -4  -6    2.20    5.50
   9   5   6   49.00   25.90
  -9  -5  -6   22.00    8.90
   9   6   6   76.59   26.60
  -9  -6  -6  111.59   26.00
   9   7   6    2.30   18.00
  -9  -7  -6  -17.40    6.10
  10   3   6  -25.30   29.70
 -10  -3  -6   94.79   17.00
  10   4   6   57.19   29.90
  10   4   6   48.90   44.10
  -9  -6   7   43.30   13.60
   9   6  -7   53.39   33.40
  -9  -5   7  164.38   21.10
   9   5  -7  195.88   54.69
  -9  -4   7   71.49   12.10
   9   4  -7   -0.60   32.00
  -9  -3   7  213.18   24.50
   9   3  -7  172.68   52.29
   9   1  -7   -9.40   41.60
  -8  -8   7   -2.40    9.40
   8   8  -7    0.10   21.50
   8   7  -7   17.30   47.70
  -8  -6   7   27.90   11.10
   8   6  -7   20.50   33.90
  -8  -5   7   75.99   14.80
   8   5  -7  121.59   44.40
  -8  -4   7   18.40    6.40
   8   4  -7   26.50   20.10
  -8  -3   7  157.68   15.90
  -8  -2   7  224.88   18.40
   8   2  -7  237.48   58.69
   8   1  -7   27.50   28.60
  -8   0   7   30.20    7.20
  -8   1   7   48.20   10.20
   8  -1  -7   49.40   56.79
  -8   2   7  173.68   20.70
   8  -2  -7  168.78   83.59
  -7  -8   7  441.66   41.20
   7   8  -7  458.55   70.69
  -7  -7   7   87.99   18.10
   7   7  -7  159.68   48.70
  -7  -6   7  152.78   21.10
   7   6  -7  168.78   51.09
  -7  -5   7    9.60    7.30
   7   5  -7   -3.50   18.70
  -7  -4   7  451.65   33.80
   7   3  -7   31.50   27.60
   7   2  -7  217.38   54.39
   7   1  -7   -5.40   21.00
   7   1  -7   30.60   21.80
  -7   0   7    7.00    3.80
   7   0  -7    2.20   20.60
  -7   1   7   59.49   10.80
   7  -1  -7   27.70   36.90
  -7   2   7   79.49   14.00
   7  -2  -7   27.40   37.10
  -7   3   7    6.90    9.00
   7  -3  -7    0.50   55.99
   7  -4  -7  -60.89   48.90
  -6  -9   7   22.60    9.80
   6   9  -7    6.40   27.80
  -6  -8   7   65.19   15.80
   6   8  -7   15.20   27.60
  -6  -7   7  165.48   22.40
   6   7  -7  147.99   45.40
  -6  -6   7  125.59   21.00
   6   6  -7  107.19   41.40
  -6  -5   7  413.16   38.70
   6   5  -7  444.96   84.69
  -6  -4   7   79.19   13.90
  -6  -4   7   53.59   14.50
   6   4  -7   98.89   34.30
  -6  -3   7   70.99   13.30
  -6  -3   7   91.99   10.20
   6   3  -7   99.49   39.20
   6   2  -7  542.35   74.49
   6   1  -7  904.91  100.29
   6   1  -7  862.91  128.89
   6   0  -7  154.68   47.80
   6   0  -7  119.39   51.19
   6  -1  -7   46.60   34.80
  -6   2   7  692.63   45.40
   6  -2  -7  411.66  107.59
   6  -3  -7   40.10   45.50
  -6   4   7  183.68   22.60
   6  -4  -7   67.09   64.29
  -6   5   7   13.50   10.20
   6  -5  -7  -13.60   57.99
  -5  -9   7    2.20    8.60
   5   9  -7   32.80   10.30
   5   9  -7   46.20   28.20
  -5  -8   7   -9.50    5.40
   5   8  -7   -0.50    5.60
  -5  -7   7   45.10   11.10
  -5  -7   7   42.80   25.10
   5   7  -7  -19.90   13.40
  -5  -6   7  349.07   61.09
  -5  -6   7  342.27   32.90
   5   6  -7  407.66   63.89
  -5  -5   7    2.60    6.30
  -5  -5   7    6.50   24.60
   5   5  -7   14.40   13.50
  -5  -4   7  280.97   24.90
  -5  -4   7  270.67   25.30
   5   4  -7  276.37   63.19
  -5  -3   7  238.98   20.30
  -5  -3   7  266.17   21.00
   5   3  -7  283.67   62.49
   5   2  -7   19.40   25.10
   5   2  -7    5.90   12.00
   5   1  -7   39.50   28.20
   5   1  -7  -13.50   13.40
   5   0  -7  223.38   54.29
  -5   1   7   27.00    5.80
  -5   1   7   22.40    6.20
   5  -1  -7    5.90   20.80
  -5   2   7   86.19   12.50
  -5   2   7   56.19   11.30
   5  -2  -7   28.00   35.70
  -5   3   7   -4.30    5.40
   5  -3  -7  -36.50   27.30
  -5   4   7   31.90   11.00
   5  -4  -7   41.70   49.60
  -5   5   7   24.10   11.10
   5  -5  -7   23.20   51.79
  -5   6   7   25.40   10.10
   5  -6  -7    6.20   59.59
  -4  -9   7    3.90    6.90
   4   9  -7   11.80    7.00
   4   9  -7    1.60   20.70
  -4  -8   7   85.99   19.80
   4   8  -7   59.19   31.80
   4   8  -7  104.09   14.10
  -4  -7   7  462.15   40.40
   4   7  -7  445.16   87.79
   4   7  -7  440.86   32.90
  -4  -6   7    4.10    5.50
   4   6  -7    4.50    3.30
   4   6  -7   16.30   15.20
   4   6  -7    1.70    3.40
  -4  -5   7  554.44   67.79
  -4  -5   7  696.53   49.20
   4   5  -7  587.84   79.69
  -4  -4   7   -0.70    4.30
  -4  -4   7  -13.20   18.50
  -4  -4   7    3.70    4.30
   4   4  -7  -11.60   11.20
  -4  -3   7  961.30   56.99
  -4  -3   7 1219.88  117.39
  -4  -3   7  902.41   58.29
   4   3  -7 1042.30  108.39
  -4  -2   7   22.60   24.70
   4   2  -7    8.80   15.10
   4   1  -7 2063.79  205.38
   4   1  -7 2950.70  199.78
   4   0  -7   37.90   27.40
   4   0  -7   55.59   23.60
   4  -1  -7  178.18   68.99
  -4   2   7   21.90    9.20
  -4   2   7   50.29   10.00
   4  -2  -7   34.80   28.40
  -4   3   7 1273.97   79.99
   4  -3  -7 1074.39  170.18
  -4   4   7   15.80   10.40
   4  -4  -7   24.20   39.20
  -4   5   7    8.50    7.70
  -4   6   7   57.39   15.40
   4  -6  -7    7.00   56.89
   4  -7  -7   50.29   65.39
  -3  -9   7   78.39   19.20
   3   9  -7   65.09   31.10
   3   9  -7   43.10   12.20
  -3  -8   7  133.19   23.90
   3   8  -7   91.59   15.70
   3   8  -7   72.79   33.50
  -3  -7   7   20.10    7.90
   3   7  -7   21.10    7.00
   3   7  -7    3.70   20.00
  -3  -6   7  499.35   42.90
   3   6  -7  531.65   40.40
   3   6  -7  545.15   77.09
   3   6  -7  540.25   36.40
  -3  -5   7  300.27   27.20
   3   5  -7  292.27   62.99
   3   5  -7  227.68   20.80
   3   5  -7  313.37   20.70
  -3  -4   7   94.19   13.20
  -3  -4   7  108.19   13.20
  -3  -4   7   83.79   24.30
   3   4  -7  103.79   36.30
  -3  -3   7   42.90    8.70
  -3  -3   7   45.00   20.20
  -3  -3   7   45.80    9.20
   3   3  -7   34.30   19.50
  -3  -2   7  680.53   72.99
  -3  -2   7  551.64   32.00
   3   2  -7  404.06   67.49
   3   2  -7  496.15   69.09
  -3  -1   7  393.86   57.29
   3   1  -7  248.98   66.59
   3   1  -7  339.47   66.19
   3   0  -7  246.58   88.09
   3   0  -7  294.07   61.79
  -3   1   7   33.60    5.90
  -3   1   7   12.80    8.30
   3  -1  -7   17.10   15.50
  -3   2   7  147.09   25.40
  -3   2   7  165.68   16.70
   3  -2  -7  116.59   54.59
  -3   3   7  187.18   20.20
  -3   3   7  208.58   32.80
   3  -3  -7  126.19   59.49
  -3   4   7   65.99   17.60
   3  -4  -7    7.80   42.40
  -3   5   7  202.48   32.90
   3  -5  -7  165.78   77.49
  -3   6   7  290.27   47.30
   3  -6  -7  142.69   88.39
  -3   7   7  140.29   28.90
   3  -7  -7   55.99   64.79
  -2  -9   7  223.78   39.40
   2   9  -7  261.07   27.40
   2   9  -7  177.18   59.89
  -2  -8   7   36.50   11.90
   2   8  -7   20.90    8.40
   2   8  -7   21.50   25.90
  -2  -7   7   -1.10    7.10
   2   7  -7   -9.10    3.60
  -2  -6   7   26.20    9.20
   2   6  -7   34.20    8.70
  -2  -5   7  184.68   22.00
   2   5  -7  208.78   26.50
   2   5  -7  225.58   19.50
   2   5  -7  168.78   47.50
  -2  -4   7   26.30    8.00
   2   4  -7   31.50    6.90
   2   4  -7   28.50    8.60
   2   4  -7   37.30   25.30
  -2  -3   7    4.00    4.20
  -2  -3   7   -0.40    3.00
  -2  -3   7    9.50    7.50
   2   3  -7   -2.60   11.70
   2   3  -7   11.10   13.00
  -2  -2   7   10.70    3.70
  -2  -2   7    6.90    3.70
  -2  -2   7    9.20   10.90
   2   2  -7    9.10   11.90
   2   2  -7   17.60   14.20
  -2  -1   7   52.09    6.90
  -2  -1   7   47.10    6.00
  -2  -1   7   65.39   23.60
   2   1  -7   17.60   16.20
   2   1  -7   31.00   19.20
  -2   0   7  611.84   36.50
   2   0  -7  723.03   83.29
   2   0  -7  547.25   83.09
  -2   1   7    2.60    5.00
  -2   1   7   -4.40    3.70
   2  -1  -7    7.30   20.60
  -2   2   7  194.48   31.30
  -2   2   7  210.98   20.30
   2  -2  -7  206.58   73.89
  -2   3   7 1937.01  126.69
  -2   3   7 2108.69  113.99
   2  -3  -7 1545.95  204.78
  -2   4   7  237.88   33.00
  -2   5   7    8.20   10.80
   2  -5  -7   13.30   10.80
   2  -5  -7   -3.00    5.90
   2  -5  -7  -35.90   22.80
  -2   6   7   74.79   20.50
   2  -6  -7   54.49   17.80
   2  -6  -7   21.20   27.70
   2  -6  -7  168.98   28.30
  -2   7   7  282.67   37.30
   2  -7  -7  188.58   76.79
   2  -7  -7  261.17   28.90
  -2   8   7    8.30   11.80
   2  -8  -7    7.90   11.80
   2  -8  -7  -12.10   42.50
  -1  -9   7    1.50    8.70
   1   9  -7    4.90   25.60
   1   9  -7    4.70    7.10
  -1  -8   7   -7.90    5.60
   1   8  -7   18.90   19.50
   1   8  -7    2.90    6.00
  -1  -7   7    6.80    7.40
   1   7  -7    2.00   14.10
   1   7  -7    0.80    4.40
  -1  -6   7   63.79   14.60
   1   6  -7   56.89   13.00
   1   6  -7   14.70   20.00
  -1  -5   7  145.79   19.90
   1   5  -7  147.59   16.60
   1   5  -7  114.79   38.30
  -1  -4   7  307.17   29.20
   1   4  -7  288.97   59.59
   1   4  -7  390.56   33.60
   1   4  -7  357.46   27.00
  -1  -3   7  200.88   20.20
  -1  -3   7  218.28   20.50
   1   3  -7  218.38   17.60
   1   3  -7  211.38   49.80
   1   3  -7  226.68   22.60
  -1  -2   7   25.20    6.60
  -1  -2   7   22.60    5.80
   1   2  -7   23.50   20.20
   1   2  -7   20.80    6.50
   1   2  -7   25.00   14.10
   1   2  -7   19.00    4.40
  -1  -1   7  366.16   25.50
  -1  -1   7  350.16   52.99
  -1  -1   7  390.46   29.80
   1   1  -7  418.16   59.89
   1   1  -7  302.37   49.60
  -1   0   7 3533.65  245.38
  -1   0   7 3407.36  186.08
  -1   0   7 3648.73  191.98
   1   0  -7 3576.84  253.97
   1   0  -7 3791.62  253.17
  -1   1   7  190.28   44.70
  -1   1   7  160.88   16.10
  -1   1   7  145.79   18.40
  -1   1   7  199.38   52.59
   1  -1  -7  188.88   58.49
  -1   2   7   97.89   22.60
  -1   2   7  101.89   14.10
   1  -2  -7  123.69   51.99
  -1   3   7   56.49   21.50
  -1   3   7  109.89   18.20
   1  -3  -7  105.49   14.30
   1  -3  -7   74.59    9.30
   1  -3  -7  122.99   55.49
  -1   4   7 1192.08   88.59
   1  -4  -7  800.42  127.19
   1  -4  -7 1008.90   63.49
   1  -4  -7 1144.09   75.19
  -1   5   7   72.49   22.80
   1  -5  -7    4.90   16.10
   1  -5  -7   61.59   12.00
   1  -5  -7   54.19   47.50
  -1   6   7  617.64   59.09
   1  -6  -7  540.15  129.19
   1  -6  -7  533.25   41.40
  -1   7   7   36.40   14.40
   1  -7  -7  129.89   60.49
   1  -7  -7   46.40   11.40
  -1   8   7   26.20   17.60
   1  -8  -7   30.70   41.30
   1  -8  -7   44.60   11.50
   0   9  -7  236.58   44.80
   0   9  -7  152.08   55.09
   0  -8   7   -9.20    8.10
   0   8  -7  -11.20   17.80
   0   8  -7   19.40    8.00
   0  -7   7  129.69   25.30
   0   7  -7  186.28   51.69
   0   7  -7  168.98   21.70
   0  -6   7    9.50    5.10
   0   6  -7   -2.70   13.90
   0   6  -7    0.90    5.20
   0  -5   7 3105.39  173.28
   0   5  -7 2950.70  166.88
   0   5  -7 2946.11  213.78
   0  -4   7   54.09   12.70
   0   4  -7   67.89   13.20
   0   4  -7   61.19   25.00
   0   3  -7  433.06   60.29
   0   3  -7  383.06   32.70
   0   3  -7  418.66   30.70
   0  -2   7  115.89   20.40
   0  -2   7   73.59   12.70
   0  -2   7   82.59   28.10
   0   2  -7  112.09   30.20
   0   2  -7   78.89   13.00
   0   2  -7   94.39   11.10
   0   2  -7   82.49   30.10
   0  -1   7 2803.52  164.78
   0  -1   7 3026.90  211.28
   0  -1   7 3352.06  175.68
   0   1  -7 3403.06  200.68
   0   1  -7 2914.11  164.28
   0   1  -7 3233.88  163.08
   0   1  -7 2969.70  215.28
   0   0   7  214.78   18.40
   0   0   7  226.08   23.60
   0   0   7  233.28   51.89
   0   0  -7  198.48   16.80
   0   0  -7  205.98   16.40
   0   0  -7  205.38   36.40
   0   0  -7  171.48   48.20
   0   1   7  580.44   81.39
   0   1   7  533.55   37.00
   0   1   7  554.94   44.30
   0  -1  -7  487.15   37.10
   0  -1  -7  543.65   35.60
   0  -1  -7  546.65   69.09
   0   2   7   50.69   15.10
   0   2   7   44.80   13.70
   0  -2  -7   44.60    9.70
   0  -2  -7   43.00   22.50
   0  -2  -7   38.80   10.70
   0   3   7    0.50   11.10
   0   3   7   12.20    7.40
   0  -3  -7   10.70    5.80
   0  -3  -7    6.80    6.80
   0  -3  -7   -3.70   10.10
   0   4   7   67.79   21.50
   0  -4  -7   33.90    9.80
   0  -4  -7   71.69   36.10
   0   5   7  554.44   55.19
   0  -5  -7  394.86   34.00
   0  -5  -7  386.06   74.29
   0   6   7  120.39   28.50
   0  -6  -7  120.09   48.30
   0  -6  -7   65.29   14.00
   0   7   7  376.56   45.40
   0  -7  -7  357.16   94.19
   0  -7  -7  310.67   30.00
   0   8   7   -5.70    9.80
   0  -8  -7    7.70    6.70
   0  -8  -7   31.00   38.00
   0   9   7   -0.60   14.10
   0  -9  -7   51.19   43.60
   0  -9  -7   -7.80    6.70
   1  -8   7   11.20   16.50
  -1   8  -7   25.10   23.70
  -1   8  -7   15.20    9.10
   1  -7   7   11.90   12.50
  -1   7  -7   -3.30    4.50
  -1   7  -7   17.60   17.80
   1  -6   7   18.00    9.50
  -1   6  -7   47.20   27.70
   1  -5   7   20.90   10.10
  -1   5  -7   39.70   19.70
  -1   5  -7    6.80    5.30
   1  -4   7   88.69   22.20
  -1   4  -7   62.09   12.90
  -1   4  -7   27.10   22.90
   1  -3   7   -3.10    9.70
   1  -3   7   -1.00    4.90
  -1   3  -7    5.10    4.70
  -1   3  -7   20.10    9.70
   1  -2   7  180.38   38.70
   1  -2   7  214.68   26.70
  -1   2  -7  196.68   45.80
  -1   2  -7  220.98   21.40
  -1   2  -7  212.88   19.70
   1  -1   7    5.70    7.80
   1  -1   7   -0.20    2.90
   1  -1   7  -20.60    9.30
  -1   1  -7  -16.40    8.10
  -1   1  -7    1.30    4.00
  -1   1  -7    3.90    2.90
   1   0   7 1689.33  103.49
   1   0   7 1659.93  140.69
   1   0   7 1655.33   92.89
  -1   0  -7 1605.04   90.39
  -1   0  -7 1471.45   96.69
   1   1   7  115.19   22.50
   1   1   7  135.69   45.60
   1   1   7  118.09   14.70
  -1  -1  -7  128.59   13.90
  -1  -1  -7  145.09   23.40
   1   2   7  783.02   54.29
   1   2   7  842.12   68.49
  -1  -2  -7  793.32   61.89
  -1  -2  -7  847.32   81.39
  -1  -2  -7  810.02   52.79
   1   3   7  127.39   31.30
  -1  -3  -7  205.78   39.30
  -1  -3  -7  116.19   33.20
  -1  -3  -7  167.08   19.40
   1   4   7 1577.24  121.29
  -1  -4  -7 1553.54  114.09
  -1  -4  -7 1716.83  143.49
  -1  -4  -7 1521.85   98.59
   1   5   7   19.40   14.00
  -1  -5  -7   12.10    7.20
  -1  -5  -7    9.40   13.90
   1   6   7  164.18   37.40
  -1  -6  -7  204.68   57.99
  -1  -6  -7  206.58   24.20
   1   7   7   42.70   17.60
  -1  -7  -7   11.50   25.40
  -1  -7  -7   42.70   10.90
   1   8   7  113.89   28.70
  -1  -8  -7  117.69   20.20
  -1  -8  -7   78.39   36.40
   1   9   7   53.59   32.20
  -1  -9  -7   53.69   34.70
  -1  -9  -7   55.29   13.50
   2  -8   7  155.78   39.70
  -2   8  -7  119.89   44.80
  -2   8  -7  122.29   25.00
   2  -7   7   14.10   14.90
  -2   7  -7   18.10    9.10
  -2   7  -7   16.90   20.80
   2  -6   7  177.58   36.60
  -2   6  -7  231.88   26.00
  -2   6  -7  148.19   45.00
   2  -5   7  429.86   56.09
  -2   5  -7  353.56   53.89
  -2   5  -7  437.86   37.70
   2  -4   7   52.49   18.50
   2  -4   7   70.29   21.30
  -2   4  -7   52.89   19.70
  -2   4  -7   52.49   23.70
  -2   4  -7   68.39   14.90
   2  -3   7  179.78   34.80
   2  -3   7  259.37   32.70
  -2   3  -7  248.08   50.09
  -2   3  -7  212.38   21.90
  -2   3  -7  141.59   34.30
   2  -2   7   -8.60    5.50
   2  -2   7   18.70   13.70
  -2   2  -7    8.70   10.20
   2  -1   7 1796.22  136.59
  -2   1  -7 1999.70  110.09
   2   0   7   96.99   22.80
   2   0   7   87.19   30.50
  -2   0  -7  118.79   21.00
  -2   0  -7   98.69   12.90
   2   1   7   35.00   13.60
   2   1   7   38.50   14.80
   2   1   7   11.40   16.20
  -2  -1  -7   41.90    9.50
   2   2   7  243.78   39.50
  -2  -2  -7  236.48   31.70
  -2  -2  -7  202.68   20.90
   2   3   7   18.00   14.90
  -2  -3  -7   14.40    6.10
  -2  -3  -7   35.30   14.70
   2   4   7  363.66   59.59
  -2  -4  -7  440.56   58.79
  -2  -4  -7  379.86   35.20
   2   5   7  230.88   44.70
  -2  -5  -7  220.18   25.60
  -2  -5  -7  274.97   46.40
   2   6   7   52.49   15.80
  -2  -6  -7   43.70   12.30
  -2  -6  -7   23.80   19.50
   2   7   7  510.75   62.09
  -2  -7  -7  591.84   82.79
  -2  -7  -7  551.94   46.50
   2   8   7  273.27   48.80
  -2  -8  -7  281.57   29.80
  -2  -8  -7  283.07   70.79
   2   9   7   23.20   17.90
  -2  -9  -7   19.30    9.40
  -2  -9  -7   35.90   28.90
  -3   7  -7   86.59   33.20
   3  -6   7    7.00   13.80
  -3   6  -7    7.80    7.30
   3  -5   7   77.69   27.60
  -3   5  -7   48.90   24.90
  -3   5  -7   69.49   16.20
  -3   5  -7   53.99   23.10
   3  -4   7  567.34   57.09
  -3   4  -7  450.05   64.69
  -3   4  -7  582.14   67.49
  -3   4  -7  645.64   46.80
   3  -3   7   74.69   20.50
   3  -3   7   52.89   19.60
  -3   3  -7   39.60   21.80
  -3   3  -7   81.69   15.50
  -3   3  -7   33.30   25.00
   3  -2   7  761.42   64.89
   3  -2   7  698.93   62.99
  -3   2  -7  703.53  103.49
  -3   2  -7  663.63   49.40
   3  -1   7   -7.30    7.10
   3  -1   7  -21.50   10.70
  -3   1  -7    0.90    3.20
   3   0   7  737.73   82.59
   3   0   7  697.23   62.99
  -3   0  -7  761.72   50.59
   3   1   7   16.50   20.90
   3   1   7    8.80   10.20
  -3  -1  -7    4.00    3.90
   3   2   7 4646.44  278.27
  -3  -2  -7 4828.42  252.97
   3   3   7  110.59   31.90
  -3  -3  -7   65.39   14.00
   3   4   7   21.10   19.90
  -3  -4  -7   13.20    6.80
   3   5   7   19.50   16.50
  -3  -5  -7   27.60   10.80
   3   6   7  870.41   88.19
  -3  -6  -7  935.81   68.69
  -3  -6  -7  958.70   99.29
   3   7   7   63.59   23.30
  -3  -7  -7   43.10   14.20
  -3  -7  -7   58.89   24.60
   3   8   7    1.90   13.70
  -3  -8  -7   16.90   16.70
  -3  -8  -7   26.70   10.60
   3   9   7   66.39   28.20
  -3  -9  -7   44.20   12.50
  -3  -9  -7   64.99   33.70
   4  -7   7   30.50   20.80
  -4   7  -7   16.10    9.40
   4  -6   7  164.68   39.50
  -4   6  -7  148.29   25.30
   4  -5   7   67.59   28.50
  -4   5  -7   65.19   15.40
   4  -4   7  164.68   34.00
  -4   4  -7  212.68   24.90
   4  -3   7  861.91   61.59
   4  -3   7  812.92   75.29
  -4   3  -7  910.01   62.19
   4  -2   7   68.39   17.10
   4  -2   7   28.40   15.80
  -4   2  -7   75.99   15.20
   4  -1   7  119.89   28.30
   4  -1   7  165.98   32.10
  -4   1  -7  167.68   19.20
   4   0   7  245.38   50.79
   4   0   7  259.47   43.70
  -4   0  -7  250.37   24.50
   4   1   7  735.83   92.39
   4   1   7  863.11   74.69
  -4  -1  -7  856.41   56.59
   4   2   7   92.89   26.30
  -4  -2  -7   69.39   14.30
   4   3   7   18.30   16.60
  -4  -3  -7    0.90    4.70
   4   4   7    0.70   16.10
  -4  -4  -7    5.40    4.80
   4   5   7   -5.80   17.30
   4   6   7  -24.40   14.10
  -4  -6  -7   -0.90    5.70
   4   7   7  166.38   40.70
  -4  -7  -7  179.68   28.70
   4   8   7   49.99   21.90
  -4  -8  -7   15.10   10.60
  -4  -8  -7   20.90   14.30
  -4  -9  -7   -5.50    8.30
  -4  -9  -7    5.00   14.60
   5  -6   7   -8.30   20.50
  -5   6  -7   14.20    9.10
   5  -5   7  154.48   40.60
  -5   5  -7  181.18   24.80
   5  -4   7  301.57   53.29
  -5   4  -7  340.07   33.60
   5  -3   7  598.44   61.89
  -5   3  -7  563.04   46.20
   5  -2   7   -2.80    7.20
   5  -2   7   -0.10    8.60
  -5   2  -7    9.70    6.60
   5  -1   7  147.09   32.10
   5  -1   7  209.58   31.10
  -5   1  -7  185.28   21.30
   5   0   7  320.27   42.20
   5   0   7  271.27   43.70
  -5   0  -7  318.87   29.00
   5   1   7  145.39   46.60
   5   1   7  119.89   30.80
  -5  -1  -7  123.19   17.00
   5   2   7  880.81   82.09
  -5  -2  -7  852.31   58.99
   5   3   7   92.09   28.30
  -5  -3  -7   83.69   16.10
   5   4   7  114.49   33.90
  -5  -4  -7  123.59   21.10
   5   5   7  243.98   55.59
  -5  -5  -7  262.97   29.00
   5   6   7 1374.76  122.39
  -5  -6  -7 1431.86   95.19
   5   7   7   26.60   21.10
  -5  -7  -7   26.20   10.50
   5   8   7   79.89   26.90
  -5  -8  -7   63.69   16.70
   5   9   7  131.99   36.60
  -5  -9  -7  125.79   39.50
   6  -5   7  -44.30   18.50
  -6   5  -7   15.10    9.30
   6  -4   7  -32.80   14.00
  -6   4  -7    6.10    8.00
   6  -3   7   -8.10   11.80
  -6   3  -7   -5.70    4.30
   6  -2   7  113.59   31.70
  -6   2  -7   83.19   16.90
   6  -1   7  275.57   26.00
  -6   1  -7  269.87   27.50
   6   0   7  436.86   49.20
   6   0   7  425.26   51.99
  -6   0  -7  402.26   36.70
   6   1   7  238.08   52.29
   6   1   7  210.08   40.90
  -6  -1  -7  226.68   24.30
   6   2   7  -11.70   11.70
  -6  -2  -7   -3.20    2.80
   6   3   7  503.65   62.49
  -6  -3  -7  448.96   38.20
   6   4   7  253.37   54.99
  -6  -4  -7  266.67   27.70
   6   5   7  -18.80   17.60
  -6  -5  -7  -11.20    4.90
  -6  -6  -7    3.40    6.10
   6   7   7   79.99   27.30
  -6  -7  -7  134.19   25.20
   6   8   7   22.70   16.30
  -6  -8  -7    8.50    9.40
   6   9   7   13.60   16.30
  -6  -9  -7   93.59   22.40
  -7   4  -7   48.50   13.30
   7  -3   7  197.48   41.50
   7  -2   7  202.98   41.10
  -7   2  -7  202.98   24.70
   7  -1   7   72.79   26.50
  -7   1  -7   65.89   13.90
   7   0   7   12.10   16.20
   7   0   7   30.20   14.20
  -7   0  -7   14.80    7.30
   7   1   7  387.06   64.59
   7   1   7  341.47   58.19
  -7  -1  -7  432.96   36.20
  -7  -2  -7   72.59   14.80
   7   3   7  316.07   65.79
  -7  -3  -7  258.67   26.70
   7   4   7   45.30   29.70
  -7  -4  -7   56.49   13.80
   7   5   7   -9.10   15.10
  -7  -5  -7    1.60    6.00
   7   6   7   -0.60   12.10
  -7  -6  -7   29.30   11.50
   7   7   7   70.89   28.40
  -7  -7  -7   68.69   16.70
   7   8   7   27.80   20.90
  -7  -8  -7   97.19   20.40
   8  -2   7   44.10   24.40
  -8   2  -7   33.50   10.50
   8  -1   7   74.69   27.80
  -8   1  -7  125.09   21.10
   8   0   7  172.38   41.00
  -8   0  -7  114.99   21.00
   8   1   7    1.90   19.60
   8   1   7   18.50    9.70
  -8  -1  -7   12.10    8.00
   8   2   7  -15.10   15.20
  -8  -2  -7   22.00    9.30
   8   3   7  512.85   67.49
  -8  -3  -7  547.95   43.80
   8   4   7  416.66   75.99
  -8  -4  -7  481.15   40.70
   8   5   7   32.70   23.30
  -8  -5  -7   40.50   11.90
   8   6   7   30.10   19.20
  -8  -6  -7   14.70    8.60
   8   7   7  291.37   54.99
  -8  -7  -7  322.97   36.80
   8   8   7   42.10   23.50
  -8  -8  -7   39.20   15.90
   9   0   7   21.70   24.30
  -9   0  -7    7.10    7.60
   9   1   7   54.29   25.90
  -9  -1  -7   89.89   24.00
   9   2   7   75.39   31.40
  -9  -2  -7   96.09   19.00
   9   3   7  -51.89   20.30
   9   3   7   -4.80   12.40
  -9  -3  -7    9.90    6.80
   9   4   7    4.30   20.20
  -9  -4  -7   11.20    8.70
   9   5   7  -20.00   20.60
  -9  -5  -7   36.00   12.40
   9   6   7   10.30   21.60
  -9  -6  -7    3.90    8.80
   9   5  -8  -26.40   21.70
   9   3  -8  106.79   43.20
   9   2  -8   79.69   40.50
   9   1  -8  -40.50   32.80
   8   7  -8  141.29   48.60
  -8  -6   8  357.66   33.00
   8   6  -8  425.56   91.19
  -8  -5   8    7.50    7.60
   8   5  -8   16.40   26.00
  -8  -4   8  141.59   17.20
   8   4  -8  145.29   49.60
  -8  -3   8  160.08   15.20
   8   3  -8  212.58   58.19
   8   2  -8  196.78   54.29
   8   1  -8   67.89   39.90
   8   0  -8   95.69   58.59
   8  -1  -8  129.89   55.29
   8  -2  -8   56.79   52.99
   7   8  -8   36.30   27.20
  -7  -7   8   43.60   12.10
   7   7  -8  -39.90   30.00
  -7  -6   8   -8.20    6.00
   7   6  -8   -4.90   18.00
  -7  -5   8   35.70   12.40
   7   5  -8   42.20   24.30
  -7  -4   8   -0.40    5.60
   7   4  -8   20.90   21.80
   7   2  -8   68.49   36.00
   7   1  -8   37.40   30.00
   7   1  -8  -13.10   22.30
   7   0  -8  121.39   39.40
   7   0  -8   37.80   47.00
  -7   1   8  295.37   23.80
   7  -1  -8  353.16  108.79
  -7   2   8   -3.90    7.40
   7  -2  -8  -39.30   32.00
  -7   3   8   -4.90    7.20
   7  -3  -8   -2.50   47.60
  -6  -8   8    0.60    6.30
   6   8  -8  -39.50   21.90
  -6  -7   8    0.30    7.10
   6   7  -8   20.30   27.10
  -6  -6   8  149.49   20.50
   6   6  -8  227.98   59.49
   6   5  -8  200.48   51.69
  -6  -4   8    2.30    8.80
  -6  -4   8    4.80    5.60
   6   3  -8   39.50   27.20
   6   2  -8  589.34  100.29
   6   2  -8  606.64   84.19
   6   1  -8  340.97   68.99
   6   1  -8  298.17   88.49
   6   0  -8  153.78   65.79
   6   0  -8  256.87   62.19
  -6   1   8   67.39   11.30
  -6   1   8  100.79   15.90
   6  -1  -8   45.80   39.20
  -6   2   8  112.19   15.70
   6  -2  -8  147.19   70.19
  -6   3   8   17.00    6.60
   6  -3  -8  -40.10   25.20
  -6   4   8  211.08   24.70
   6  -4  -8  115.39   94.59
  -5  -9   8   10.60    8.40
   5   9  -8  -19.30   20.80
  -5  -8   8    5.70    6.80
   5   8  -8   -0.60   21.50
  -5  -7   8  144.99   19.80
   5   7  -8  151.98   48.90
  -5  -6   8  201.88   22.50
   5   6  -8  170.88   52.19
  -5  -5   8    9.80    6.10
  -5  -5   8   -8.30   19.90
   5   5  -8    7.30   19.90
  -5  -4   8  115.99   15.10
  -5  -4   8  125.99   14.40
   5   4  -8  112.39   44.20
  -5  -3   8   23.80    5.20
   5   3  -8   19.80   19.90
   5   2  -8  129.09   54.89
   5   2  -8   77.09   37.90
   5   1  -8   -1.60   12.00
   5   1  -8   23.90   23.10
   5   0  -8  184.78   71.29
   5   0  -8  284.47   61.59
  -5   1   8  651.53   38.90
  -5   2   8    9.60    6.90
  -5   2   8   15.30    6.70
   5  -2  -8   33.40   40.40
  -5   3   8   14.10    7.50
   5  -3  -8   36.90   45.20
  -5   4   8   71.59   15.50
   5  -4  -8   77.39   62.79
   5  -5  -8  169.78  106.69
  -4  -9   8    4.40    7.70
   4   9  -8  -29.30   18.90
   4   9  -8   -7.10    6.70
  -4  -8   8  242.28   28.70
   4   8  -8  341.77   25.70
   4   8  -8  295.17   72.49
  -4  -7   8   13.20    7.30
   4   7  -8    8.90    4.50
   4   7  -8  -14.40    7.00
  -4  -6   8  347.77   31.70
   4   6  -8  331.47   74.29
  -4  -5   8   54.09   11.80
  -4  -5   8   18.90   16.20
   4   5  -8   26.20   21.60
  -4  -4   8  940.11  103.59
  -4  -4   8  962.70   59.09
  -4  -4   8  944.11   59.09
   4   4  -8  819.32  101.69
  -4  -3   8    2.90    3.30
  -4  -3   8    8.20    3.50
  -4  -3   8   11.50   17.20
   4   3  -8   -1.30   10.10
   4   3  -8   34.90   24.50
   4   2  -8    9.60   11.90
   4   1  -8  136.39   55.49
   4   1  -8  159.38   47.30
   4   0  -8  587.14   78.79
   4   0  -8  466.35   88.29
   4  -1  -8  231.28   79.79
  -4   2   8   86.69   16.50
   4  -2  -8   34.60   35.30
   4  -3  -8   71.79   51.69
  -4   4   8   99.39   20.80
   4  -4  -8   48.20   59.09
  -4   5   8   51.99   15.80
   4  -5  -8   40.80   58.19
  -4   6   8   -1.20    9.50
   4  -6  -8  -46.00   38.60
  -3  -9   8   73.69   23.30
   3   9  -8   75.09   32.40
   3   9  -8   60.99   13.80
  -3  -8   8   26.10   11.80
   3   8  -8   24.90    8.90
   3   8  -8   36.10   32.30
   3   7  -8   32.70    8.60
   3   7  -8   52.59   27.80
  -3  -6   8    7.70    5.40
   3   6  -8   14.80    5.10
   3   6  -8    8.10    9.10
   3   6  -8   26.30   21.80
  -3  -5   8  506.65   38.50
   3   5  -8  383.16   77.89
  -3  -4   8   25.20   11.80
  -3  -4   8    4.70    4.60
   3   4  -8    8.90   15.10
  -3  -3   8   -0.20    3.10
  -3  -3   8   10.60    4.30
  -3  -3   8   -4.60    8.40
   3   3  -8  -14.20   10.40
   3   3  -8    0.40   13.80
  -3  -2   8   94.19    9.40
  -3  -2   8   73.09   26.50
  -3  -2   8   71.59    8.10
   3   2  -8   66.29   30.30
   3   2  -8   95.39   36.10
  -3  -1   8  216.68   50.79
   3   1  -8   96.59   39.70
   3   1  -8  186.58   49.70
   3   0  -8   10.00   12.90
   3   0  -8  -18.10   10.70
  -3   1   8  792.52   55.99
  -3   1   8 1010.20   53.49
   3  -1  -8  749.73  121.09
  -3   2   8   41.00    9.60
  -3   2   8    7.90   11.50
   3  -2  -8    6.10   23.70
  -3   3   8  -16.40    8.00
   3  -3  -8    4.90   22.20
  -3   4   8   35.50   14.50
   3  -4  -8   -2.80   37.10
  -3   5   8  638.44   55.99
   3  -5  -8  550.84  151.28
   3  -6  -8   40.40   44.30
  -3   7   8   -4.60    7.90
   3  -7  -8  -45.20   36.30
  -2  -9   8   13.10   10.60
   2   9  -8  -17.50   31.90
   2   9  -8   16.90    7.90
  -2  -8   8  165.38   29.30
   2   8  -8  205.88   22.90
   2   8  -8  182.28   53.59
  -2  -7   8   25.10   10.10
   2   7  -8   25.10    8.60
   2   7  -8   25.00   27.70
  -2  -6   8  728.13   55.89
   2   6  -8  684.43   91.69
   2   6  -8  771.12   49.40
  -2  -5   8    6.90    5.10
   2   5  -8    0.60    7.80
   2   5  -8    8.50    4.50
   2   5  -8    6.80   12.70
   2   4  -8 1718.63  151.38
   2   4  -8 1602.14   94.79
   2   4  -8 1741.33   91.09
  -2  -3   8  223.18   20.50
  -2  -3   8  269.47   22.60
   2   3  -8  222.98   35.80
   2   3  -8  231.88   55.39
  -2  -2   8  194.68   16.50
  -2  -2   8  219.68   17.70
  -2  -2   8  256.17   37.10
   2   2  -8  117.29   35.50
   2   2  -8  115.39   38.30
  -2  -1   8   45.90    6.20
  -2  -1   8   42.00   18.10
   2   1  -8   47.50   28.10
   2   1  -8   10.70   16.60
  -2   0   8 2952.90  153.48
  -2   0   8 3032.40  158.48
   2   0  -8 3004.00  223.18
   2   0  -8 2653.33  230.28
  -2   1   8  193.88   17.30
  -2   1   8  157.58   18.30
   2  -1  -8  176.28   63.59
  -2   2   8  246.08   29.00
  -2   2   8  236.08   22.00
   2  -2  -8  196.98   74.49
  -2   3   8  109.19   23.70
   2  -3  -8   45.80   36.20
  -2   4   8  118.19   27.30
   2  -4  -8  122.19   57.49
  -2   5   8   10.10   12.50
   2  -5  -8  -11.90   29.60
  -2   6   8   22.80   10.60
   2  -6  -8    9.40   33.40
  -2   7   8    7.00   10.80
   2  -7  -8   26.60   43.10
   2  -7  -8   13.50   10.30
   2  -8  -8  103.69   67.89
   1   9  -8   43.40   31.60
   1   9  -8   12.40    7.10
  -1  -8   8   64.09   17.40
   1   8  -8   70.29   15.00
   1   8  -8   97.29   39.70
  -1  -7   8  188.08   24.80
   1   7  -8  178.18   21.10
   1   7  -8  129.99   44.80
  -1  -6   8    1.50    4.30
   1   6  -8   -9.90   17.80
   1   6  -8    1.60    4.40
   1   5  -8   23.20   21.00
  -1  -4   8  131.29   16.80
   1   4  -8  146.69   19.40
   1   4  -8  129.49   14.00
   1   4  -8   70.09   32.40
  -1  -3   8 2681.53  147.19
   1   3  -8 2735.93  148.29
   1   3  -8 2528.45  197.88
   1   3  -8 2616.24  140.79
  -1  -2   8   56.49   10.50
   1   2  -8   25.50   17.40
   1   2  -8   75.39   12.00
   1   2  -8   71.99    7.10
   1   2  -8  102.79   37.80
  -1  -1   8   93.69   11.00
  -1  -1   8   94.39   17.00
   1   1  -8   88.39   31.30
   1   1  -8   88.19   32.30
  -1   0   8  249.58   21.00
  -1   0   8  295.07   26.20
   1   0  -8  365.26   74.19
   1   0  -8  310.47   56.89
  -1   1   8  151.58   22.70
  -1   1   8   93.99   12.80
   1  -1  -8  113.79   44.10
  -1   2   8  125.59   24.20
  -1   2   8  105.49   17.20
   1  -2  -8   96.49   40.80
  -1   3   8  435.66   46.90
   1  -3  -8  352.76   91.79
  -1   4   8  307.37   41.60
   1  -4  -8  353.66   32.50
   1  -4  -8  331.57   89.49
   1  -4  -8  346.47   25.50
   1  -5  -8  232.18   79.19
   1  -5  -8  285.77   34.60
   1  -5  -8  279.27   23.90
  -1   6   8  183.08   32.80
   1  -6  -8  188.08   36.10
   1  -6  -8  151.38   17.80
   1  -6  -8  234.38   80.69
  -1   7   8   59.49   18.30
   1  -7  -8   45.30   10.50
   1  -7  -8   18.10   29.30
  -1   8   8  208.78   36.70
   1  -8  -8  207.38   78.39
   1  -8  -8  104.39   17.30
   0   8  -8  450.05   85.89
   0   8  -8  354.36   34.40
   0   7  -8  210.98   23.20
   0   7  -8  151.68   42.80
   0   6  -8   57.29   23.70
   0   5  -8   32.50   20.80
   0   5  -8   32.70    9.70
   0   4  -8   20.90   18.00
   0   4  -8   56.39   11.40
   0  -3   8    0.80    6.60
   0   3  -8    0.20   12.40
   0   3  -8    3.30    3.10
   0   3  -8   -1.10    4.50
   0  -2   8   13.90    7.40
   0   2  -8    2.80    3.90
   0   2  -8   19.10   16.90
   0   2  -8    7.90   10.70
   0   2  -8   13.10    5.00
   0  -1   8   10.40    4.90
   0  -1   8   28.90   10.10
   0   1  -8   -1.10   10.40
   0   1  -8    7.00   13.60
   0   1  -8   10.90    4.40
   0   1  -8   14.00    5.50
   0   0   8 1161.58   73.09
   0   0   8 1018.20   64.09
   0   0  -8 1134.89  102.09
   0   0  -8 1014.60   60.89
   0   0  -8  910.81  142.89
   0   0  -8 1021.70   59.99
   0   1   8   91.69   14.40
   0   1   8   87.79   18.90
   0  -1  -8   92.49   15.30
   0  -1  -8   70.19   26.80
   0  -1  -8   97.39   11.70
   0   2   8  399.36   33.20
   0   2   8  426.76   42.50
   0  -2  -8  393.76   29.80
   0  -2  -8  421.16   66.29
   0  -2  -8  417.16   34.30
   0   3   8  245.28   40.50
   0  -3  -8  300.67   70.29
   0  -3  -8  228.48   28.80
   0  -3  -8  277.07   23.90
   0   4   8  244.58   43.00
   0  -4  -8  259.47   68.89
   0  -4  -8  283.77   38.50
   0  -4  -8  246.68   23.30
   0   5   8   28.80   17.00
   0  -5  -8   17.30   19.70
   0  -5  -8    9.20    5.60
   0  -5  -8    7.20   14.20
   0   6   8   89.69   24.30
   0  -6  -8   84.59   16.70
   0  -6  -8  160.48   57.89
   0   7   8   32.30   16.20
   0  -7  -8   10.10    7.20
   0  -7  -8    2.20   24.00
   0   8   8   78.89   23.00
   0  -8  -8  103.59   52.09
   0  -8  -8   90.99   21.70
   0   9   8  -22.40   11.30
   0  -9  -8   19.00    9.80
   0  -9  -8   47.70   43.10
   1  -8   8   61.19   21.60
  -1   8  -8  106.99   35.30
  -1   8  -8   88.39   19.20
   1  -7   8  174.88   37.10
  -1   7  -8  137.79   43.20
  -1   7  -8  177.08   23.00
   1  -6   8   67.89   21.60
  -1   6  -8  113.69   19.10
  -1   6  -8   98.09   36.70
   1  -5   8   62.59   18.70
  -1   5  -8   52.69   27.00
  -1   5  -8   40.50   10.80
   1  -4   8  222.38   36.60
  -1   4  -8  172.08   43.50
  -1   4  -8  207.78   21.80
   1  -3   8 2963.30  181.18
  -1   3  -8 3175.28  167.58
  -1   3  -8 2966.10  216.68
   1  -2   8   81.99   20.30
  -1   2  -8  138.89   16.90
  -1   2  -8  103.09   13.40
  -1   2  -8  117.79   33.70
   1  -1   8  288.47   56.79
   1  -1   8  292.47   33.10
  -1   1  -8  301.67   24.00
  -1   1  -8  270.37   24.80
  -1   1  -8  290.07   60.59
   1   0   8   10.80    5.20
   1   0   8   14.70    7.80
  -1   0  -8   17.40    5.50
   1   1   8 4980.50  284.17
   1   1   8 5102.39  271.17
  -1  -1  -8 5242.38  268.57
  -1  -1  -8 5048.49  278.27
  -1  -1  -8 5289.87  306.87
   1   2   8   10.70    9.60
  -1  -2  -8    4.30    7.50
  -1  -2  -8    5.10    7.40
  -1  -2  -8    4.80    4.60
   1   3   8 2494.45  169.08
  -1  -3  -8 2639.84  191.88
  -1  -3  -8 2612.94  147.39
  -1  -3  -8 2706.73  161.18
   1   4   8    5.00   14.70
  -1  -4  -8   11.80   13.90
  -1  -4  -8   46.40   12.70
  -1  -4  -8    2.00   16.00
   1   5   8  213.98   44.60
  -1  -5  -8  319.97   59.59
  -1  -5  -8  267.17   27.20
   1   6   8    1.50    8.90
  -1  -6  -8    5.60   19.40
  -1  -6  -8    2.80    5.60
   1   7   8  650.03   65.39
  -1  -7  -8  691.23  100.59
  -1  -7  -8  556.94   45.60
   1   8   8   28.80   16.70
  -1  -8  -8   33.40   28.70
  -1  -8  -8   26.60    9.90
   1   9   8   25.90   17.20
  -1  -9  -8    6.80    8.70
   2  -8   8   96.29   29.50
  -2   8  -8  179.28   51.29
  -2   8  -8  136.49   22.20
   2  -7   8   70.79   23.20
  -2   7  -8  111.69   19.70
  -2   7  -8   71.19   36.80
   2  -6   8   15.50   17.20
  -2   6  -8   36.20   23.00
  -2   6  -8   37.80   10.90
   2  -5   8  220.28   40.30
  -2   5  -8  225.78   52.89
   2  -4   8  799.02   69.09
  -2   4  -8  770.92   85.09
  -2   4  -8  767.12   55.09
   2  -3   8  281.77   35.80
   2  -3   8  294.17   56.89
  -2   3  -8  222.88   40.40
  -2   3  -8  316.77   27.80
  -2   3  -8  263.17   55.89
   2  -2   8  250.67   39.70
   2  -2   8  262.37   41.60
  -2   2  -8  141.29   43.70
  -2   2  -8  249.58   23.20
   2  -1   8  185.28   42.30
   2  -1   8  197.38   33.40
  -2   1  -8  191.88   19.60
   2   0   8   81.39   21.80
   2   0   8   80.99   36.70
  -2   0  -8   93.49   19.40
  -2   0  -8   91.59   12.40
   2   1   8  276.37   43.50
  -2  -1  -8  289.47   24.30
  -2  -1  -8  239.98   30.90
   2   2   8  279.57   37.50
  -2  -2  -8  322.37   27.10
  -2  -2  -8  289.57   36.00
   2   3   8    3.40   11.20
  -2  -3  -8   -0.40    4.10
   2   4   8  875.71   86.79
  -2  -4  -8  980.50   67.39
  -2  -4  -8 1028.90   99.19
   2   5   8  190.48   45.70
  -2  -5  -8  192.08   49.99
  -2  -5  -8  188.48   23.30
   2   6   8  116.09   33.60
  -2  -6  -8   87.89   18.40
  -2  -6  -8  114.39   40.30
  -2  -7  -8   -3.20    4.40
  -2  -7  -8  -16.30   10.80
   2   8   8   92.79   27.00
  -2  -8  -8  169.98   52.99
  -2  -8  -8   75.69   16.70
   2   9   8   49.20   22.10
  -2  -9  -8   61.29   14.90
  -2  -9  -8  115.39   46.60
   3  -7   8  -12.00   13.80
  -3   7  -8   37.30   26.70
  -3   7  -8   -3.00    7.30
   3  -6   8   78.39   26.30
  -3   6  -8   55.69   32.60
  -3   6  -8  113.39   21.70
   3  -5   8   28.70   13.70
  -3   5  -8   27.80   10.40
  -3   5  -8   32.10   20.10
   3  -4   8  481.65   48.80
   3  -4   8  509.65   54.59
  -3   4  -8  568.24   67.89
  -3   4  -8  367.96   56.69
   3  -3   8  114.69   27.70
   3  -3   8  121.49   27.00
  -3   3  -8  102.99   36.50
  -3   3  -8  108.79   19.10
   3  -2   8  305.47   45.40
   3  -2   8  373.76   43.00
  -3   2  -8  369.96   31.30
   3  -1   8  614.24   68.29
   3  -1   8  557.64   54.69
  -3   1  -8  534.55   41.20
   3   0   8  114.39   27.30
  -3   0  -8  100.09   17.40
   3   1   8  945.61   78.59
  -3  -1  -8  973.70   62.29
   3   2   8  107.19   27.90
  -3  -2  -8   85.09   15.00
   3   3   8   -3.50   11.70
  -3  -3  -8    3.50    5.10
   3   4   8   41.70   22.50
  -3  -4  -8   48.20   13.10
   3   5   8  275.37   55.79
  -3  -5  -8  289.57   31.20
   3   6   8  198.08   52.49
  -3  -6  -8  161.18   52.59
  -3  -6  -8  254.37   28.70
   3   7   8  480.85   59.89
  -3  -7  -8  482.15   43.50
  -3  -7  -8  500.05   71.29
   3   8   8   41.60   18.80
  -3  -8  -8   27.20    9.80
  -3  -8  -8   35.90   23.80
  -3  -9  -8   27.80   25.00
  -4   6  -8  178.08   34.70
   4  -5   8   10.90   13.00
  -4   5  -8   -0.70    5.80
   4  -4   8   -4.20   12.60
  -4   4  -8    6.80    7.10
   4  -3   8   25.40   13.70
   4  -3   8   24.20   14.50
  -4   3  -8   22.40    9.00
   4  -2   8  526.25   55.19
   4  -2   8  512.05   62.39
  -4   2  -8  495.15   40.30
   4  -1   8  504.15   55.09
   4  -1   8  564.64   60.09
  -4   1  -8  578.54   43.40
   4   0   8  198.28   38.80
   4   0   8  226.88   51.69
  -4   0  -8  211.98   22.60
   4   1   8  411.16   47.60
  -4  -1  -8  398.66   33.40
   4   2   8   38.10   19.30
  -4  -2  -8   68.39   13.80
   4   3   8  121.39   31.60
  -4  -3  -8   99.69   17.10
   4   4   8 1169.78  105.49
  -4  -4  -8 1192.38   78.69
   4   5   8  336.27   66.09
  -4  -5  -8  315.37   32.80
   4   6   8   84.99   27.70
   4   7   8  -14.50   14.20
  -4  -7  -8    4.10   11.80
  -4  -7  -8   -1.40    5.90
   4   8   8  772.32   79.79
  -4  -8  -8  713.73   59.89
  -4  -8  -8  864.01   97.89
   4   9   8   99.49   32.10
  -4  -9  -8  113.89   22.80
  -4  -9  -8  109.69   42.30
   5  -5   8   86.39   28.00
   5  -4   8   -4.10   13.40
  -5   4  -8   19.60    8.80
   5  -3   8   85.99   23.70
  -5   3  -8   59.29   13.90
   5  -2   8   79.69   20.80
   5  -2   8  102.79   26.90
  -5   2  -8  130.59   17.70
   5  -1   8  552.44   57.19
   5  -1   8  531.35   58.19
  -5   1  -8  552.34   43.50
   5   0   8   64.69   31.30
   5   0   8   41.00   18.50
  -5   0  -8   50.69   12.00
   5   1   8   42.20   18.20
  -5  -1  -8   35.80    9.70
   5   2   8  684.03   68.39
  -5  -2  -8  637.64   47.70
   5   3   8 1083.09   96.99
  -5  -3  -8 1055.69   70.69
   5   4   8    9.30   13.30
  -5  -4  -8    8.70    6.90
   5   5   8   16.40   23.70
   5   6   8  200.68   47.40
  -5  -6  -8  156.28   26.20
   5   7   8   56.19   27.20
  -5  -7  -8   44.90   14.70
   5   8   8  -11.40   13.60
  -5  -8  -8    9.90   14.40
  -5  -8  -8    8.20    9.30
   5   9   8  -13.90   13.40
  -5  -9  -8   10.70   20.30
  -5  -9  -8   36.00   13.10
   6  -4   8  -38.10   13.40
  -6   4  -8   -3.00    7.40
   6  -3   8   33.30   19.10
  -6   3  -8   26.80    9.40
   6  -2   8  364.36   59.29
  -6   2  -8  369.66   34.60
   6  -1   8  253.27   31.90
   6  -1   8  239.88   42.60
  -6   1  -8  242.08   26.20
   6   0   8    9.40   11.50
   6   0   8   26.30   34.30
  -6   0  -8   21.20    8.60
   6   1   8   19.70   12.90
  -6  -1  -8   13.90    7.10
   6   2   8  302.07   54.19
   6   3   8  148.89   46.60
  -6  -3  -8  128.99   26.50
   6   4   8  232.18   51.99
  -6  -4  -8  180.58   23.10
   6   5   8  288.27   59.49
  -6  -5  -8  243.38   27.80
   6   6   8   68.79   30.70
  -6  -6  -8   66.79   16.20
   6   7   8    2.70   14.30
  -6  -7  -8   13.60   10.00
   6   8   8  437.16   58.89
  -6  -8  -8  395.36   43.00
   6   9   8   66.69   26.50
  -6  -9  -8   67.69   32.30
  -6  -9  -8   96.19   22.10
   7  -3   8   -6.40   14.60
  -7   3  -8   -2.70    5.80
   7  -2   8   33.60   18.90
  -7   2  -8   33.10   11.40
   7  -1   8   20.60   17.00
  -7   1  -8    5.40    6.60
   7   0   8   25.00   16.50
  -7   0  -8   56.69   13.10
   7   1   8   54.99   34.20
   7   1   8   35.10   19.70
   7   2   8  139.89   38.60
  -7  -2  -8  182.88   21.60
   7   3   8  110.99   33.90
  -7  -3  -8  162.38   20.00
   7   4   8   -7.40   18.90
  -7  -4  -8   13.90    7.30
   7   5   8  225.78   50.99
  -7  -5  -8  194.18   24.90
   7   6   8  415.46   68.19
  -7  -6  -8  340.37   36.00
   7   7   8   84.99   33.10
  -7  -7  -8   75.59   18.20
   7   8   8   33.90   21.20
  -7  -8  -8    8.50    8.90
   8  -2   8   -0.40   26.30
  -8   2  -8    8.30    7.30
   8  -1   8   -3.50   16.20
  -8   1  -8   26.30   10.00
   8   0   8  255.87   50.89
  -8   0  -8  260.67   28.90
   8   1   8    0.80   20.80
  -8  -1  -8   -1.30    4.80
   8   2   8    3.10   17.10
  -8  -2  -8  -11.00    4.10
   8   3   8   36.20   26.20
  -8  -3  -8   83.99   16.80
   8   4   8  106.39   39.50
  -8  -4  -8  195.68   23.20
   8   5   8  -13.40   18.60
  -8  -5  -8   21.20    9.20
   8   6   8  154.78   38.40
  -8  -6  -8  113.89   34.60
  -8  -7  -8    8.40    8.80
   9   1   8   48.70   28.70
  -9  -1  -8   73.09   16.10
   9   2   8   29.10   22.90
   9   3   8   21.20   24.00
   9   4   8   42.50   30.30
   9   5   8  216.68   47.40
  -9  -5  -8  186.68   24.10
   9   6   8   76.69   27.00
  -9  -6  -8   89.79   17.90
   9   4  -9    2.10   26.20
   9   3  -9   25.80   27.50
   9   2  -9  -36.90   29.30
  -8  -6   9  149.19   18.90
   8   6  -9  108.59   46.30
  -8  -5   9    6.70    6.50
   8   5  -9  -29.00   25.00
  -8  -4   9  153.18   23.70
   8   4  -9  177.98   47.20
   8   3  -9   -1.50   29.00
   8   2  -9  142.09   43.60
   8   1  -9  112.39   49.00
   8  -1  -9  -44.10   36.90
   7   7  -9   42.80   24.50
  -7  -6   9    9.60    7.20
   7   6  -9   35.00   25.70
  -7  -5   9  117.29   15.80
   7   5  -9  135.29   53.39
  -7  -4   9   42.70    9.90
   7   4  -9   86.79   42.40
   7   3  -9   13.10   24.40
   7   2  -9   -1.20   23.60
   7   1  -9   12.50   32.80
   7   0  -9   47.40   53.19
   7  -1  -9   35.50   45.30
  -7   2   9   92.49   15.70
   7  -2  -9   -1.00   47.00
   7  -3  -9  -63.39   42.40
  -6  -8   9   -1.70    6.00
   6   8  -9    6.90   23.70
  -6  -7   9  185.78   22.30
   6   7  -9  171.28   50.59
  -6  -6   9   26.70    8.40
   6   6  -9   31.80   27.20
  -6  -5   9  668.63   46.60
   6   5  -9  652.13   95.39
  -6  -4   9  -11.10    7.30
  -6  -4   9    1.70    4.70
   6   3  -9  250.57   83.09
   6   2  -9   58.29   30.70
   6   2  -9   79.29   51.49
   6   1  -9  -35.80   21.40
   6   1  -9   -8.10   19.20
   6   0  -9  158.58   53.59
  -6   1   9  201.58   18.10
   6  -1  -9  153.48   64.29
  -6   2   9   36.90    9.30
   6  -2  -9   24.00   44.80
  -6   3   9  145.09   18.00
   6  -3  -9   61.69   62.29
  -6   4   9   88.99   16.20
   6  -4  -9  164.08   79.79
  -5  -8   9    5.70    7.10
  -5  -7   9    9.20    7.90
   5   7  -9   30.30   30.30
  -5  -6   9   18.50    7.20
  -5  -6   9    7.10   14.80
   5   6  -9   14.80   21.40
  -5  -5   9   37.30   21.40
  -5  -5   9   15.20    6.10
   5   5  -9   25.30   20.00
  -5  -4   9   44.00    9.70
  -5  -4   9   26.50    8.00
  -5  -3   9  285.07   20.70
  -5  -3   9  271.07   21.20
   5   3  -9  244.88   61.79
   5   2  -9  186.48   60.69
   5   2  -9  203.38   56.49
   5   1  -9   12.80   23.70
   5   1  -9   -3.20   22.70
   5   0  -9  138.39   59.69
   5   0  -9  158.08   53.49
  -5   1   9  239.38   21.60
   5  -1  -9  174.18   87.09
  -5   2   9   -3.30    7.00
  -5   2   9    7.10    6.20
   5  -2  -9  -42.60   26.30
  -5   3   9  171.08   20.70
   5  -3  -9  142.89   77.09
   5  -4  -9   24.00   52.39
  -5   5   9  129.59   20.60
   5  -5  -9   85.09   71.89
   4   9  -9   20.70   31.00
  -4  -8   9    8.10    7.20
   4   8  -9  -32.60   17.30
   4   7  -9   25.00   22.20
  -4  -6   9   -0.60    4.40
   4   6  -9    3.00   12.60
  -4  -5   9  832.02   55.59
  -4  -5   9  855.91   69.99
   4   5  -9  701.93   96.49
  -4  -4   9  215.38   40.90
  -4  -4   9  246.68   21.90
   4   4  -9  252.87   63.99
  -4  -3   9   54.09    9.20
  -4  -3   9   55.79   24.50
  -4  -3   9   53.99    9.30
   4   3  -9   26.50   22.90
   4   3  -9   54.19   29.90
   4   2  -9  179.38   57.09
   4   2  -9  170.08   49.00
   4   1  -9  393.86   80.49
   4   1  -9  233.58   67.19
   4   0  -9  183.98   71.29
   4   0  -9  183.38   53.49
  -4   1   9  409.36   36.30
  -4   1   9  447.86   29.70
  -4   2   9   37.00   10.40
   4  -2  -9   31.30   37.80
  -4   3   9  169.08   23.10
   4  -3  -9   66.29   54.09
  -4   4   9   16.80    9.50
   4  -4  -9    8.30   51.49
  -4   5   9   60.09   14.80
   4  -5  -9   49.50   53.89
  -4   6   9   -2.20    9.00
   4  -6  -9   -6.90   56.29
  -3  -9   9   79.29   20.10
   3   9  -9   74.99   45.50
   3   9  -9  102.29   16.90
  -3  -8   9  334.87   35.60
   3   8  -9  363.36   28.80
   3   8  -9  277.57   71.49
  -3  -7   9   79.39   17.70
   3   7  -9   66.29   35.10
   3   7  -9   40.90    9.50
  -3  -6   9  283.87   28.30
   3   6  -9  349.37   76.99
   3   6  -9  264.07   19.60
   3   6  -9  231.48   20.80
  -3  -5   9  175.38   20.60
   3   5  -9  136.59   45.20
  -3  -4   9  649.24   56.09
  -3  -4   9  598.14   42.90
   3   4  -9  498.45   79.49
  -3  -3   9   79.59   23.80
  -3  -3   9   62.69   11.30
  -3  -3   9   81.59   11.20
   3   3  -9   60.19   27.10
   3   3  -9   92.29   36.60
  -3  -2   9 3461.15  164.28
  -3  -2   9 2916.01  162.08
   3   2  -9 2786.32  227.58
  -3  -1   9  104.29    9.50
   3   1  -9  108.39   37.20
   3   1  -9   76.79   36.90
   3   0  -9   48.10   30.30
   3   0  -9   66.19   32.60
  -3   1   9  243.38   19.20
  -3   1   9  248.18   24.60
   3  -1  -9  118.09   57.79
  -3   2   9 1358.16   81.89
  -3   2   9 1579.44   95.79
   3  -2  -9 1063.49  164.88
  -3   3   9  260.17   32.00
   3  -3  -9  163.08   68.59
  -3   4   9    2.70    9.80
   3  -4  -9  -53.39   29.70
  -3   5   9  190.28   31.80
   3  -5  -9  101.79   65.79
  -3   6   9    5.10    9.50
   3  -6  -9  -23.00   29.20
  -3   7   9  141.59   27.00
   3  -7  -9   61.69   71.69
  -2  -9   9   95.29   21.50
   2   9  -9  100.89   17.10
  -2  -8   9   29.10   10.50
   2   8  -9   57.19   13.70
   2   8  -9   59.99   33.10
  -2  -7   9  624.84   50.39
   2   7  -9  589.54   42.90
   2   7  -9  624.24   88.09
  -2  -6   9  222.78   25.40
   2   6  -9  271.37   22.50
   2   6  -9  127.79   61.59
  -2  -5   9   16.60    7.20
   2   5  -9    2.40    3.60
   2   5  -9    1.10   16.70
   2   5  -9    2.80    8.20
  -2  -4   9   -7.40    2.70
   2   4  -9    2.70    2.40
   2   4  -9   10.10   12.50
   2   4  -9   10.90    4.80
  -2  -3   9  779.42   51.49
   2   3  -9  842.92   98.89
   2   2  -9   39.30   23.10
   2   2  -9   23.30   19.70
  -2  -1   9  552.04   38.50
  -2  -1   9  516.25   33.60
  -2  -1   9  644.74   67.69
   2   1  -9  521.75   76.49
   2   1  -9  371.46   67.59
  -2   0   9   22.90    6.70
  -2   0   9   23.10    5.60
   2   0  -9  -11.10   20.60
   2   0  -9    7.20   20.00
  -2   1   9   47.00    9.90
  -2   1   9   31.60    9.80
   2  -1  -9   69.89   37.30
  -2   2   9    1.90    9.10
  -2   2   9   12.40    6.50
   2  -2  -9   -3.40   28.90
  -2   3   9   21.20   13.70
   2  -3  -9   16.10   32.80
  -2   4   9   54.49   15.40
   2  -4  -9  -24.30   23.00
  -2   5   9  260.17   35.30
   2  -5  -9  168.68   78.59
  -2   6   9   34.30   17.70
   2  -6  -9   10.10   42.50
  -2   7   9  113.19   25.20
   2  -7  -9  132.09   64.29
  -1  -8   9  148.69   26.80
   1   8  -9  153.58   20.00
   1   8  -9  105.79   47.90
  -1  -7   9   12.40    7.90
   1   7  -9   55.59   32.20
   1   7  -9   37.70   11.20
   1   6  -9   15.70   25.70
   1   6  -9   13.20    6.20
  -1  -5   9   93.69   17.00
   1   5  -9   97.39   36.30
   1   5  -9   87.69   14.30
  -1  -4   9  462.95   36.80
   1   4  -9  419.76   30.30
   1   4  -9  356.26   72.29
   1   4  -9  432.16   36.40
   1   3  -9   20.70    5.90
   1   3  -9   -0.30    9.40
   1   3  -9   20.60    7.60
  -1  -2   9 1530.35   88.59
  -1  -2   9 1768.22   97.89
   1   2  -9 1584.44  144.69
   1   2  -9 1578.04   81.69
   1   2  -9 1488.45   84.99
   1   2  -9 1282.37  116.99
  -1  -1   9   -1.70    2.70
  -1  -1   9   -4.10    3.40
   1   1  -9   -0.90   13.10
   1   1  -9    3.00   11.70
  -1   0   9  216.38   23.00
  -1   0   9  200.48   20.20
   1   0  -9  167.78   52.39
   1   0  -9  213.88   58.29
  -1   1   9  102.69   19.60
  -1   1   9   95.59   15.20
   1  -1  -9  121.39   48.60
  -1   2   9 3593.54  200.78
  -1   2   9 3531.55  188.18
   1  -2  -9 3148.78  273.57
  -1   3   9  141.29   29.30
   1  -3  -9   76.19   40.40
  -1   4   9  230.48   38.50
   1  -4  -9  222.88   72.79
  -1   5   9  -13.50    9.40
   1  -5  -9    1.50    4.40
   1  -5  -9   22.20   28.70
   1  -5  -9   12.20   12.20
  -1   6   9  477.25   58.09
   1  -6  -9  381.36   62.39
   1  -6  -9  450.35  111.99
  -1   7   9   14.60   10.50
   1  -7  -9    9.50    5.70
   1  -7  -9   22.30   35.70
  -1   8   9   30.10   16.40
   1  -8  -9    8.80    8.50
   1  -8  -9   19.70   37.90
   0  -8   9   -0.10   12.00
   0   8  -9   40.60   31.30
   0   8  -9   12.20    7.30
   0  -7   9   62.99   21.90
   0   7  -9   44.00   11.90
   0   7  -9   21.90   22.00
   0  -6   9  161.58   31.70
   0   6  -9  230.18   55.99
   0   6  -9  125.79   17.60
   0   5  -9   31.20    8.90
   0   5  -9   64.19   26.70
   0  -4   9  239.48   29.70
   0   4  -9  180.38   48.90
   0   4  -9  195.48   19.80
   0  -3   9  489.45   43.20
   0   3  -9  406.16   35.10
   0   3  -9  385.96   61.69
   0   3  -9  467.85   32.70
   0  -2   9  514.85   53.89
   0   2  -9  631.14   42.40
   0   2  -9  633.04   64.39
   0   2  -9  629.74   39.50
   0   2  -9  560.34   76.29
   0  -1   9  387.16   35.70
   0   1  -9  307.07   48.40
   0   1  -9  302.97   23.00
   0   1  -9  316.27   25.10
   0   1  -9  428.86   64.29
   0   0   9  404.96   30.60
   0   0   9  381.46   37.10
   0   0  -9  369.26   55.99
   0   0  -9  389.96   27.80
   0   0  -9  402.06   27.20
   0   1   9    7.90    6.00
   0   1   9   -3.30    3.80
   0  -1  -9    3.30   12.80
   0  -1  -9    3.00    2.80
   0   2   9  224.68   29.70
   0  -2  -9  179.38   17.30
   0  -2  -9  190.68   54.89
   0  -2  -9  197.68   20.60
   0   3   9  448.06   48.80
   0  -3  -9  387.16   35.90
   0  -3  -9  503.15   77.29
   0  -3  -9  380.46   30.00
   0   4   9  169.28   36.90
   0  -4  -9  204.58   62.69
   0  -4  -9  177.18   18.40
   0  -4  -9  181.68   28.60
   0   5   9  803.02   73.69
   0  -5  -9  712.23  105.49
   0  -5  -9  700.63   62.09
   0  -5  -9  710.93   49.30
   0   6   9  267.17   44.00
   0  -6  -9  212.28   21.40
   0  -6  -9  135.89   53.79
   0   7   9    0.20    8.40
   0  -7  -9    0.20    5.60
   0  -7  -9    5.00   17.70
   0   8   9   37.20   15.70
   0  -8  -9   42.30   40.40
   1  -8   9  -17.90   11.40
  -1   8  -9   13.20   27.00
   1  -7   9    9.60   14.10
  -1   7  -9  -28.40   19.50
  -1   7  -9    7.90    8.00
   1  -6   9  598.04   59.89
  -1   6  -9  627.54   81.79
  -1   6  -9  599.14   46.90
   1  -5   9   42.80   18.10
  -1   5  -9   38.70   27.60
  -1   5  -9   57.19   14.00
   1  -4   9   14.60   11.40
  -1   4  -9   18.20    7.50
  -1   4  -9   14.70   17.50
   1  -3   9  315.07   37.50
  -1   3  -9  359.56   28.80
  -1   3  -9  279.67   61.59
   1  -2   9  780.82   62.09
  -1   2  -9  718.93   48.00
  -1   2  -9  755.02   64.29
  -1   2  -9  630.04   84.99
   1  -1   9  106.89   22.10
  -1   1  -9   84.09   24.10
  -1   1  -9   80.29   10.90
  -1   1  -9   58.99   12.20
  -1   1  -9   58.19   31.60
   1   0   9  633.34   55.39
  -1   0  -9  640.64   65.39
  -1   0  -9  648.44   42.30
   1   1   9   -6.90    5.70
  -1  -1  -9    7.70    7.30
  -1  -1  -9    0.10    3.80
  -1  -1  -9    5.60   10.90
   1   2   9  173.88   38.60
  -1  -2  -9  177.78   19.40
  -1  -2  -9  182.28   31.00
  -1  -2  -9  190.78   36.80
   1   3   9   27.30   14.90
  -1  -3  -9    4.90    4.80
  -1  -3  -9    2.70   11.30
  -1  -3  -9   13.20   13.30
   1   4   9  166.88   38.30
  -1  -4  -9  163.78   33.90
  -1  -4  -9  177.68   20.00
  -1  -4  -9  182.98   47.00
   1   5   9  191.88   43.10
  -1  -5  -9  119.39   40.90
  -1  -5  -9  146.19   18.40
   1   6   9  548.15   64.29
  -1  -6  -9  487.55   40.00
  -1  -6  -9  502.45   80.69
   1   7   9    8.10   10.30
  -1  -7  -9  -15.60   21.40
  -1  -7  -9    7.80    6.40
   1   8   9  -10.70   13.00
  -1  -8  -9    3.10    6.00
  -1  -8  -9   -7.10   15.40
   2  -7   9  155.08   39.10
  -2   7  -9  213.18   26.00
  -2   7  -9  178.18   51.79
   2  -6   9   -3.50   10.80
  -2   6  -9    1.00    5.30
  -2   6  -9   14.50   19.80
   2  -5   9  191.88   35.50
  -2   5  -9  180.08   22.20
  -2   5  -9  177.38   47.10
   2  -4   9   42.20   17.50
  -2   4  -9   65.79   29.50
  -2   4  -9   34.20   10.20
   2  -3   9   -8.40    4.60
  -2   3  -9  -10.20   13.20
  -2   3  -9   -1.90    3.70
  -2   3  -9   -4.30   16.40
   2  -2   9   74.69   20.90
  -2   2  -9  111.09   17.50
   2  -1   9 1409.26  101.59
  -2   1  -9 1449.35   85.59
   2   0   9  510.05   50.99
  -2   0  -9  571.74   39.80
   2   1   9    6.40    6.40
  -2  -1  -9   14.90    6.30
   2   2   9   82.69   21.70
  -2  -2  -9   64.69   12.70
   2   3   9 1700.43  125.19
  -2  -3  -9 1577.94  100.09
  -2  -3  -9 1801.42  138.69
   2   4   9  222.38   46.60
  -2  -4  -9  259.97   26.60
  -2  -4  -9  205.18   49.50
   2   5   9  105.59   32.00
  -2  -5  -9  183.38   22.70
  -2  -5  -9  174.78   47.10
   2   6   9   11.10   17.00
  -2  -6  -9   10.60    9.70
  -2  -6  -9    3.20    6.20
   2   7   9  366.86   47.10
  -2  -7  -9  333.47   62.89
  -2  -7  -9  310.57   36.80
   2   8   9   -9.10   12.00
  -2  -8  -9   -1.40    7.00
  -2  -8  -9  -21.90   15.90
   2   9   9  401.86   51.89
  -2  -9  -9  400.76   34.70
  -2  -9  -9  284.17   76.99
   3  -7   9   27.50   20.70
  -3   7  -9   68.29   15.70
   3  -6   9  285.57   51.29
  -3   6  -9  308.17   32.60
  -3   6  -9  275.67   61.69
   3  -5   9   30.00   17.10
  -3   5  -9   26.20    9.90
  -3   5  -9   27.60   22.40
   3  -4   9   -9.60    9.80
  -3   4  -9   18.60   22.40
  -3   4  -9   17.30    7.60
  -3   4  -9   17.20   20.90
   3  -3   9   23.70   15.50
  -3   3  -9  -37.70   20.60
  -3   3  -9   21.10    6.90
   3  -2   9 1295.77   96.59
  -3   2  -9 1194.18   77.39
   3  -1   9   64.09   20.40
  -3   1  -9   52.89   12.30
   3   0   9  107.49   26.20
  -3   0  -9   89.89   15.40
   3   1   9  318.77   39.50
  -3  -1  -9  242.18   24.00
   3   2   9  397.36   47.60
  -3  -2  -9  386.66   32.40
   3   3   9  575.84   64.39
  -3  -3  -9  611.04   45.80
   3   4   9  691.93   72.89
  -3  -4  -9  621.74   49.00
   3   5   9   13.50   14.90
  -3  -5  -9    9.50    9.00
  -3  -5  -9    4.80    6.60
   3   6   9   70.49   25.20
  -3  -6  -9  122.39   38.20
  -3  -6  -9  106.49   22.20
   3   7   9  266.47   53.19
  -3  -7  -9  301.17   57.89
  -3  -7  -9  271.37   30.60
   3   8   9   82.99   27.80
  -3  -8  -9  120.59   22.00
  -3  -8  -9  106.29   39.10
   3   9   9   18.80   13.00
  -3  -9  -9    7.00    7.30
  -3  -9  -9  -22.00   15.40
   4  -6   9  -15.30   12.40
  -4   6  -9    6.40    7.00
   4  -5   9   56.59   23.00
  -4   5  -9   30.30   11.40
   4  -4   9   23.30   16.20
  -4   4  -9   26.90    9.20
   4  -3   9   30.50   18.80
   4  -3   9   52.89   20.80
  -4   3  -9   24.20    9.00
   4  -2   9  -11.70   17.50
  -4   2  -9   11.90    6.70
   4  -1   9   24.40   12.30
  -4   1  -9   30.80   10.40
   4   0   9  122.49   31.10
  -4   0  -9   90.99   15.70
   4   1   9  472.35   52.59
  -4  -1  -9  459.45   37.20
   4   2   9   17.80   11.00
   4   3   9  375.46   62.09
  -4  -3  -9  319.97   30.70
   4   4   9  121.99   35.50
  -4  -4  -9  194.78   28.30
  -4  -5  -9  202.98   26.00
   4   6   9   15.50   21.00
  -4  -6  -9   45.30   13.60
   4   7   9  166.08   40.80
  -4  -7  -9  143.59   42.50
  -4  -7  -9  135.39   25.70
   4   8   9   -4.10   14.90
  -4  -8  -9    2.80    8.30
  -4  -8  -9    0.50   12.00
   4   9   9   16.40   16.30
  -4  -9  -9  120.39   42.60
  -4  -9  -9   53.49   15.20
   5  -5   9   63.69   32.30
  -5   5  -9  146.39   23.70
   5  -4   9  103.19   28.70
  -5   4  -9  172.08   22.60
   5  -3   9   27.50   16.40
  -5   3  -9   25.80    9.60
   5  -2   9   29.20   18.10
  -5   2  -9   31.30    9.70
   5  -1   9  146.19   35.30
   5  -1   9  187.98   41.10
  -5   1  -9  166.98   20.90
   5   0   9  315.07   53.39
  -5   0  -9  248.88   26.00
   5   1   9   81.39   25.10
  -5  -1  -9   43.50   11.80
   5   2   9   37.70   22.00
  -5  -2  -9   63.69   13.80
   5   3   9   33.70   16.30
  -5  -3  -9   14.90    6.60
   5   4   9   54.59   26.10
   5   5   9   98.79   35.50
  -5  -5  -9   76.69   16.90
   5   6   9  269.07   54.09
  -5  -6  -9  312.67   34.10
   5   7   9  393.06   67.59
  -5  -7  -9  365.56   39.00
  -5  -8  -9   10.70   17.60
  -5  -8  -9   24.40   12.90
   5   9   9    1.40   20.20
  -5  -9  -9    6.50    9.00
  -5  -9  -9   13.90   16.70
   6  -4   9   63.09   26.20
  -6   4  -9   95.89   20.00
   6  -3   9   13.20   13.30
  -6   3  -9    7.60    6.80
   6  -2   9   37.90   18.70
  -6   2  -9   28.20   10.10
   6  -1   9  267.37   50.89
  -6   1  -9  292.17   29.70
   6   0   9   25.60   26.10
   6   0   9   24.90   12.10
  -6   0  -9   17.70    8.00
   6   1   9  828.72   80.49
  -6  -1  -9  769.22   56.49
   6   2   9   82.89   27.40
  -6  -2  -9  106.19   18.70
   6   3   9   37.90   21.40
  -6  -3  -9   48.80   13.50
   6   4   9  101.49   33.30
  -6  -4  -9  136.49   23.20
   6   5   9 1088.09  107.09
  -6  -5  -9 1084.29   76.19
   6   6   9   69.29   31.80
  -6  -6  -9   50.29   14.90
   6   7   9    7.60   22.30
  -6  -7  -9    2.60    7.50
   6   8   9   97.59   27.90
  -6  -8  -9   68.29   17.70
   7  -3   9   25.00   20.70
  -7   3  -9   11.80    6.90
   7  -2   9  -25.10   12.50
  -7   2  -9   -0.30    7.90
   7  -1   9  211.38   47.40
  -7   1  -9  154.88   21.80
  -7   0  -9  336.67   33.10
   7   1   9   -0.80   13.50
  -7  -1  -9    7.80    5.40
   7   2   9   38.40   21.80
  -7  -2  -9   25.30    9.50
   7   3   9  118.99   37.30
  -7  -3  -9  105.49   19.30
   7   4   9  155.68   43.10
  -7  -4  -9  152.78   21.30
   7   5   9    8.20   21.00
  -7  -5  -9    8.90    7.30
   7   6   9  -29.60   16.10
  -7  -6  -9   21.30   10.80
  -7  -7  -9   11.50    8.80
   7   8   9  -11.30   14.20
  -7  -8  -9  -19.20    8.30
  -8   1  -9   44.30   13.30
   8   0   9  226.48   48.80
  -8   0  -9  152.78   24.80
   8   1   9    1.40   17.80
  -8  -1  -9   -0.40    6.40
   8   2   9   76.79   28.70
  -8  -2  -9  109.59   18.90
   8   3   9   54.69   23.50
   8   4   9    4.10   20.00
  -8  -4  -9    7.40    7.40
   8   5   9  236.68   54.99
  -8  -6  -9   81.59   18.60
   8   7   9   22.00   20.40
  -8  -7  -9   20.20   11.80
  -9  -2  -9  159.48   21.90
   9   3   9  206.18   60.79
  -9  -3  -9  103.89   19.20
  -9  -4  -9    3.20    6.90
   8   6 -10   92.09   44.80
   8   4 -10  242.38   66.39
   8   3 -10  -10.00   26.80
   8   2 -10   21.30   29.70
   8   1 -10    1.10   29.50
   8   0 -10   -6.90   38.80
  -7  -7  10   80.49   16.60
   7   7 -10   99.49   41.00
  -7  -6  10   37.80    9.50
  -7  -5  10   10.20    7.20
   7   5 -10    4.30   28.40
  -7  -4  10  184.28   16.70
   7   4 -10  121.69   46.70
   7   3 -10  169.08   56.59
   7   2 -10  127.09   50.89
   7   1 -10   18.30   32.10
   7   1 -10   42.40   40.30
   7   0 -10   92.69   59.39
   7  -1 -10   38.60   45.30
   7  -2 -10  111.69   79.39
  -6  -8  10   13.70    8.50
   6   8 -10   -0.90   27.90
  -6  -7  10    1.40    6.20
   6   7 -10  -21.70   21.90
   6   6 -10   29.80   28.50
  -6  -5  10   36.10    9.10
   6   5 -10   47.40   34.00
  -6  -4  10  264.07   22.40
   6   4 -10  330.87   76.09
   6   3 -10  198.58   59.99
   6   2 -10   58.09   38.90
   6   2 -10   -0.70   20.50
   6   1 -10   12.50   30.50
   6   1 -10   58.99   27.40
   6   0 -10  113.89   58.59
   6  -1 -10   -6.40   42.20
  -6   2  10    0.80    5.70
   6  -2 -10   16.30   44.80
  -6   3  10   18.00    8.60
   6  -3 -10   -8.90   46.00
  -5  -8  10   62.09   14.50
   5   8 -10   34.70   28.50
  -5  -7  10  450.25   37.00
   5   7 -10  313.37   77.59
  -5  -6  10   -7.20    5.20
   5   6 -10   32.10   22.70
  -5  -5  10  167.48   18.90
  -5  -5  10  203.68   38.20
   5   5 -10   90.79   40.70
  -5  -4  10  170.98   17.10
   5   4 -10  154.58   48.90
  -5  -3  10 1045.90   62.49
  -5  -3  10 1229.18   64.09
   5   3 -10  905.91  120.19
   5   3 -10 1127.29  126.19
   5   2 -10    2.80   18.20
   5   2 -10   19.90   19.60
   5   1 -10  560.44   81.69
   5   1 -10  333.77   90.79
   5   0 -10    4.00   29.40
   5   0 -10   24.80   24.90
   5  -1 -10   80.69   44.90
  -5   2  10   15.10    8.70
   5  -2 -10   30.50   44.60
  -5   3  10  268.27   27.80
   5  -3 -10  285.87   99.99
   5  -4 -10   77.89  104.79
  -5   5  10   14.80    9.70
   5  -5 -10    0.90   56.99
  -4  -8  10  319.17   32.70
   4   8 -10  249.88   79.19
  -4  -7  10   99.99   18.70
   4   7 -10   65.69   36.20
  -4  -6  10  119.79   19.90
   4   6 -10  113.79   42.10
  -4  -5  10  171.38   19.70
   4   5 -10  110.99   45.90
  -4  -4  10   19.10   15.10
  -4  -4  10   13.80    6.40
   4   4 -10   38.00   24.60
  -4  -3  10   77.59   12.00
  -4  -3  10   51.09    9.90
   4   3 -10   48.00   31.90
  -4  -2  10  116.49   10.80
  -4  -2  10  136.19   12.10
   4   2 -10   52.99   39.50
   4   2 -10   74.69   37.20
   4   1 -10   78.19   40.50
   4   1 -10   54.59   34.20
   4   0 -10  470.05   90.79
  -4   1  10   22.80    6.30
  -4   1  10   19.00   10.80
   4  -1 -10   23.90   33.40
  -4   2  10   10.00   10.20
  -4   2  10   16.00    7.50
   4  -2 -10    0.60   29.00
   4  -3 -10  141.79   71.09
  -4   4  10  156.98   24.90
   4  -4 -10   56.39   53.49
  -4   5  10   21.90    8.90
   4  -5 -10  -49.80   75.09
   4  -6 -10   67.79   64.99
  -3  -8  10   17.20    7.80
   3   8 -10   25.70   26.60
   3   8 -10   24.10    8.20
  -3  -7  10   -1.90    7.10
   3   7 -10   21.40   28.70
  -3  -6  10   -2.70    5.20
   3   6 -10   -8.60   18.50
  -3  -5  10  351.26   31.70
   3   5 -10  346.67   75.19
  -3  -4  10    1.80    4.40
   3   4 -10   -5.70   13.70
  -3  -3  10  408.96   51.49
  -3  -3  10  328.37   26.20
  -3  -3  10  361.66   27.40
   3   3 -10  251.67   65.79
   3   3 -10  250.07   49.90
  -3  -2  10  189.48   16.40
   3   2 -10  198.58   53.39
   3   2 -10  119.19   49.50
  -3  -1  10   25.60    8.20
  -3  -1  10   22.60    5.60
   3   1 -10   13.40   19.70
   3   1 -10   -5.00   16.00
  -3   0  10  145.19   15.70
  -3   0  10  128.09   12.40
   3   0 -10   76.79   44.40
   3   0 -10  113.49   44.50
  -3   1  10  446.96   30.40
  -3   1  10  452.35   35.60
   3  -1 -10  277.87   87.19
  -3   2  10  246.98   35.30
  -3   2  10  183.38   19.00
   3  -2 -10  187.68   78.29
  -3   3  10  536.45   52.59
  -3   4  10  247.28   30.70
   3  -4 -10  116.99   70.49
   3  -5 -10   58.59   48.00
  -3   6  10   -0.10   12.60
   3  -6 -10   94.79   60.69
  -2  -8  10   24.30   11.60
   2   8 -10   44.40   32.70
  -2  -7  10   76.89   16.50
   2   7 -10  116.29   42.80
   2   7 -10   92.49   15.00
  -2  -6  10   78.29   18.20
   2   6 -10   39.40   31.90
   2   6 -10   85.59   11.50
  -2  -5  10   72.09   14.90
   2   5 -10   98.99   10.90
   2   5 -10   85.49   14.30
   2   5 -10   22.40   28.40
  -2  -4  10   22.50    8.80
   2   4 -10   28.30   24.60
   2   3 -10  105.49   32.10
   2   3 -10  207.88   56.19
  -2  -2  10   27.70    7.10
  -2  -2  10   36.20   11.30
   2   2 -10   39.40   28.90
   2   2 -10   -0.50   12.70
  -2  -1  10  350.56   29.80
   2   1 -10  254.37   66.09
   2   1 -10  195.18   58.19
  -2   0  10  741.03   45.40
  -2   0  10  764.82   51.59
   2   0 -10  624.24  100.49
   2   0 -10  635.34   93.89
  -2   1  10  215.88   19.80
  -2   1  10  192.28   23.00
   2  -1 -10  231.58   76.29
  -2   2  10    1.50    5.50
  -2   2  10   27.20   11.80
   2  -2 -10  -24.90   17.80
  -2   3  10   65.19   30.00
   2  -3 -10   39.00   43.00
  -2   4  10 1305.97   91.29
   2  -4 -10  810.92  140.99
  -2   5  10   56.99   18.40
   2  -5 -10   -0.20   29.70
  -2   6  10   62.69   22.10
   2  -6 -10   59.19   50.29
   2  -7 -10  117.19   70.69
   1   8 -10    2.70    5.80
   1   7 -10  338.17   28.80
   1   7 -10  275.57   64.39
   1   6 -10   -2.80   18.50
   1   6 -10    0.10    4.60
   1   5 -10 1276.27  130.99
   1   5 -10 1143.19   69.69
   1   4 -10   38.20   23.90
   1   4 -10   34.30   13.40
   1   4 -10   58.89   10.00
  -1  -3  10  166.88   22.30
   1   3 -10  193.78   14.80
   1   3 -10  139.79   17.70
   1   3 -10  121.89   41.30
  -1  -2  10   77.19   18.70
   1   2 -10   63.59   24.40
   1   2 -10   89.49   38.20
  -1  -1  10 2221.68  127.79
  -1  -1  10 2635.24  140.09
   1   1 -10 2324.67  194.18
   1   1 -10 2086.89  181.58
  -1   0  10   80.59   13.20
  -1   0  10   85.69   18.30
   1   0 -10   80.09   33.50
  -1   1  10   32.50    7.80
  -1   1  10   24.70    9.80
   1  -1 -10    2.90   16.20
  -1   2  10   15.50   11.20
   1  -2 -10    3.50   16.10
  -1   3  10  130.09   27.50
   1  -3 -10  102.49   42.00
  -1   4  10   50.59   19.60
   1  -4 -10   30.30   24.00
  -1   5  10   37.10   16.80
   1  -5 -10  -18.80   28.30
  -1   6  10  -16.70   11.70
   1  -6 -10   37.20   34.30
  -1   7  10  229.88   37.80
   1  -7 -10  145.99   60.79
   0  -8  10   -1.50   14.40
   0   8 -10   -4.30    6.60
   0   8 -10   12.80   25.70
   0  -7  10   40.20   16.50
   0   7 -10    7.70    7.00
   0   7 -10   16.50   18.00
   0  -6  10  200.88   36.90
   0   6 -10  142.39   56.59
   0   6 -10  211.38   22.60
   0  -5  10    4.20   10.70
   0   5 -10   17.10    7.20
   0   5 -10  -22.70   14.00
   0  -4  10   22.40    9.30
   0   4 -10    8.60    4.40
   0   4 -10    4.90   17.00
   0  -3  10   -6.90    7.50
   0   3 -10   10.50    8.30
   0   3 -10   -6.00   14.50
   0   3 -10   23.80    8.70
   0  -2  10  133.09   25.10
   0   2 -10   61.29   31.80
   0   2 -10   88.49   15.60
   0   2 -10   91.79   27.80
   0   2 -10  125.09   12.50
   0  -1  10   30.00   12.50
   0   1 -10  -11.10   15.80
   0   1 -10   21.60    5.60
   0   1 -10    1.40   19.00
   0   1 -10   30.90    7.20
   0   0  10   42.90   13.80
   0   0 -10   56.59    9.50
   0   0 -10   56.99    9.70
   0   0 -10   48.50   26.80
   0   1  10    0.40    6.70
   0  -1 -10   10.70   13.90
   0  -1 -10    9.70    3.70
   0  -1 -10    9.60    4.90
   0  -2 -10   32.30    8.60
   0  -2 -10   15.90    5.60
   0  -2 -10   17.60   14.80
   0   3  10   47.70   17.70
   0  -3 -10    6.60    9.70
   0  -3 -10   17.40    5.90
   0  -3 -10    6.10   13.30
   0   4  10 1031.00   86.79
   0  -4 -10  994.90   59.39
   0  -4 -10  892.61   67.49
   0  -4 -10  992.40  122.09
   0   5  10    3.30   11.60
   0  -5 -10   21.90   17.80
   0  -5 -10   -5.90   15.00
   0   6  10    2.20   11.10
   0  -6 -10   -0.10   13.20
   0  -6 -10   19.60    7.10
   0   7  10   77.99   23.20
   0  -7 -10  104.29   46.70
   0  -7 -10   70.19   13.40
   0   8  10  288.17   49.99
   0  -8 -10  295.37   26.30
   0  -8 -10  256.97   78.89
   1  -7  10  122.39   34.60
  -1   7 -10   46.40   11.10
  -1   7 -10   72.89   37.20
   1  -6  10  114.99   26.50
  -1   6 -10  122.49   17.00
  -1   6 -10  137.89   44.40
   1  -5  10   21.60   14.50
  -1   5 -10   31.30    9.40
  -1   5 -10   18.30   19.40
   1  -4  10   -4.60    6.20
  -1   4 -10   14.90   20.20
   1  -3  10   21.70   11.30
  -1   3 -10   34.00    9.10
  -1   3 -10    7.20   16.80
   1  -2  10   99.59   24.00
  -1   2 -10   60.59   21.60
  -1   2 -10   89.59   12.10
  -1   2 -10  122.19   45.20
   1  -1  10 1387.56   95.09
  -1   1 -10 1418.86  138.39
  -1   1 -10 1216.98   76.29
  -1   1 -10 1292.77   80.49
  -1   1 -10 1356.26  105.69
   1   0  10  108.89   24.50
  -1   0 -10  142.29   14.70
  -1   0 -10  116.89   15.40
  -1   0 -10  129.19   33.30
   1   1  10   49.99   14.80
  -1  -1 -10   66.09   12.40
  -1  -1 -10   83.29   26.80
  -1  -1 -10   53.39   20.40
   1   2  10  603.14   58.29
  -1  -2 -10  680.63   45.30
  -1  -2 -10  585.44   72.79
   1   3  10  835.42   73.09
  -1  -3 -10  735.73   52.09
  -1  -3 -10  835.42   91.69
  -1  -3 -10  729.13   60.79
   1   4  10  331.67   52.99
  -1  -4 -10  263.57   51.29
  -1  -4 -10  229.38   24.20
  -1  -4 -10  326.77   59.99
   1   5  10   68.99   24.90
  -1  -5 -10   45.50   30.50
  -1  -5 -10   27.00    9.20
   1   6  10  129.79   33.20
  -1  -6 -10  156.88   19.20
  -1  -6 -10  168.08   55.09
   1   7  10    6.50   10.20
  -1  -7 -10   48.10   29.60
  -1  -7 -10    2.60    5.70
   1   8  10   17.80   15.40
  -1  -8 -10   10.60   31.10
  -1  -8 -10   33.10   10.50
   2  -7  10   18.70   19.70
  -2   7 -10    1.00   27.10
  -2   7 -10   28.40   14.90
   2  -6  10   -5.10   12.30
  -2   6 -10   -1.80   23.20
  -2   6 -10    9.20    6.40
   2  -5  10   38.90   15.30
  -2   5 -10   30.60   10.00
  -2   5 -10   28.30   29.40
   2  -4  10  710.93   66.69
  -2   4 -10  781.52   52.79
  -2   4 -10  607.34   84.59
   2  -3  10  113.19   27.60
  -2   3 -10  170.68   49.90
  -2   3 -10  110.09   30.30
  -2   3 -10  148.99   17.80
   2  -2  10   31.80   14.60
  -2   2 -10   35.50    9.80
  -2   2 -10   55.59   24.80
   2  -1  10   41.40   16.60
  -2   1 -10   21.80    8.80
   2   0  10 1506.05  109.79
  -2   0 -10 1590.44   91.29
   2   1  10   73.59   20.20
  -2  -1 -10   95.69   15.70
   2   2  10  251.57   46.30
  -2  -2 -10  347.37   48.10
  -2  -2 -10  269.97   26.10
   2   3  10    0.90   12.70
  -2  -3 -10    9.30   11.20
  -2  -3 -10   12.80    6.80
   2   4  10   70.69   26.00
  -2  -4 -10   95.39   33.00
  -2  -4 -10   76.69   16.60
   2   5  10  -13.70   14.70
  -2  -5 -10   -6.10    4.90
  -2  -5 -10   17.10   12.70
   2   6  10  535.45   62.29
  -2  -6 -10  525.95   76.59
  -2  -6 -10  503.05   42.50
   2   7  10  157.38   34.60
  -2  -7 -10  143.89   48.40
  -2  -7 -10  134.19   21.60
   2   8  10   83.69   28.60
  -2  -8 -10   80.59   45.40
  -2  -8 -10   62.49   14.60
   3  -6  10  115.49   29.70
  -3   6 -10  123.69   21.60
  -3   6 -10  119.69   44.70
   3  -5  10  272.07   48.00
  -3   5 -10  296.47   30.70
  -3   5 -10  325.27   68.19
   3  -4  10   95.39   25.10
  -3   4 -10  169.68   50.19
  -3   4 -10  140.89   18.90
   3  -3  10   37.30   16.30
  -3   3 -10   19.70    7.90
  -3   3 -10    5.10   25.70
   3  -2  10   52.69   21.10
  -3   2 -10   74.89   15.50
   3  -1  10   26.50   12.30
  -3   1 -10   34.50    9.00
   3   0  10  137.39   31.50
  -3   0 -10  177.88   19.40
   3   1  10  687.43   65.79
  -3  -1 -10  700.13   49.10
   3   2  10   76.19   25.10
  -3  -2 -10  139.99   17.30
   3   3  10  405.36   63.59
  -3  -3 -10  386.16   34.10
   3   4  10   70.39   26.40
  -3  -4 -10  104.39   19.70
   3   5  10  434.26   83.99
  -3  -5 -10  377.26   37.70
  -3  -5 -10  466.55   66.49
  -3  -6 -10  200.78   51.59
  -3  -7 -10   13.10    7.20
  -3  -7 -10  -10.50   14.90
   3   8  10  -13.40   16.30
  -3  -8 -10    9.00   19.30
  -3  -8 -10    5.00    8.30
  -4   5 -10   50.49   12.50
   4  -4  10  300.67   52.39
  -4   4 -10  344.57   32.90
   4  -3  10  251.47   46.20
  -4   3 -10  221.68   25.10
   4  -2  10   10.40   10.30
  -4   2 -10   11.90    5.70
  -4   1 -10   20.40    7.50
   4   0  10 1267.17  105.49
  -4   0 -10 1469.65   87.29
   4   1  10  102.49   28.80
  -4  -1 -10  104.49   17.20
   4   2  10  140.69   34.50
  -4  -2 -10  189.98   21.20
   4   3  10    4.90   15.00
  -4  -3 -10    5.90    5.10
  -4  -4 -10  612.94   48.80
   4   5  10    9.10   17.00
   4   6  10  605.14   76.79
  -4  -6 -10  715.43   85.09
  -4  -6 -10  704.73   56.49
   4   7  10   33.80   19.00
  -4  -7 -10   17.90    8.40
   4   8  10   -6.00   14.10
  -4  -8 -10  -20.10   24.20
  -4  -8 -10    2.10    7.90
   5  -5  10   44.40   22.00
  -5   5 -10   48.80   12.90
   5  -4  10   52.99   27.00
   5  -3  10   15.20   15.80
  -5   3 -10   17.60    8.10
   5  -2  10  111.49   34.90
  -5   2 -10  163.48   21.00
   5  -1  10    4.60   11.70
  -5   1 -10   16.10    8.20
   5   0  10   77.89   22.20
  -5   0 -10   77.59   15.50
   5   1  10   41.30   19.50
  -5  -1 -10   60.99   16.70
   5   2  10   23.30   18.20
   5   3  10  521.35   63.79
  -5  -3 -10  551.14   47.20
   5   4  10  432.06   70.59
  -5  -4 -10  379.06   35.70
   5   5  10  169.08   43.20
  -5  -5 -10  169.78   27.90
   5   6  10   29.10   23.60
   5   7  10  229.28   49.90
  -5  -7 -10  295.37   34.20
   5   8  10   68.79   31.60
  -5  -8 -10   97.49   37.60
  -6   3 -10  106.69   20.60
   6  -2  10  249.88   47.30
  -6   2 -10  210.18   25.50
   6  -1  10   53.59   20.80
  -6   1 -10   93.39   18.90
   6   0  10   74.89   25.00
  -6   0 -10   53.49   12.90
   6   1  10  345.07   58.89
  -6  -1 -10  365.26   33.20
   6   2  10  356.86   61.59
  -6  -2 -10  321.97   30.70
   6   3  10  -18.00   14.60
  -6  -3 -10   -8.90    4.10
   6   4  10   19.60   20.30
  -6  -4 -10   15.10    8.00
   6   5  10  -19.80   15.30
  -6  -5 -10    4.50    7.70
   6   6  10   19.30   23.80
  -6  -6 -10   -0.70    7.20
  -6  -7 -10   20.50   11.20
   6   8  10   22.40   23.70
  -6  -8 -10   13.80   10.20
   7  -2  10   75.79   30.20
  -7   2 -10  108.99   19.80
   7  -1  10   13.90   17.20
   7   0  10   61.09   21.60
   7   1  10  203.68   40.70
  -7  -1 -10  145.29   20.40
   7   2  10  152.88   37.80
  -7  -2 -10  188.68   22.80
   7   3  10  204.28   49.99
  -7  -3 -10  198.98   25.10
   7   4  10  114.49   38.40
  -7  -4 -10  111.49   20.40
   7   5  10   31.40   26.60
  -7  -5 -10   26.40    9.40
   7   6  10    4.20   35.70
   7   7  10  465.25   74.29
  -7  -7 -10  379.46   41.60
   8   0  10   45.60   25.00
   8   1  10  108.99   38.60
  -8  -1 -10  121.59   20.00
   8   2  10  211.48   50.39
  -8  -2 -10  235.28   26.90
   8   3  10  -36.20   14.20
  -8  -3 -10   10.60    8.30
   8   4  10   -8.10   16.20
  -8  -4 -10    4.80    6.10
   8   5  10  222.98   51.09
  -8  -5 -10  274.37   30.50
   8   6  10   50.69   27.00
  -8  -6 -10   80.69   17.80
   8   4 -11  -17.00   32.20
   8   3 -11   99.39   38.30
   8   2 -11    7.00   26.80
   8   1 -11   -5.80   33.50
   8   1 -11   25.00   35.70
  -7  -6  11   83.49   14.20
   7   6 -11   36.90   30.50
  -7  -5  11   60.29   11.70
   7   5 -11   77.19   48.30
   7   4 -11   29.30   29.90
   7   3 -11  -20.60   28.20
   7   2 -11  298.17   72.79
   7   2 -11  401.66  102.79
   7   1 -11  142.49   59.09
   7   0 -11   30.90   43.70
   7  -1 -11   -6.00   46.90
  -6  -7  11  211.58   21.50
   6   7 -11   83.19   47.80
  -6  -6  11  157.18   19.00
   6   5 -11   61.59   33.30
  -6  -4  11   56.09   10.40
   6   4 -11  103.79   39.00
   6   3 -11   30.70   26.20
   6   2 -11  234.98   65.19
   6   1 -11  122.89   49.60
   6   1 -11   91.59   39.80
   6   0 -11  -17.30   29.10
   6  -1 -11  136.09   61.29
   6  -2 -11   20.40   43.30
   6  -3 -11   46.80   58.59
  -5  -7  11   65.99   15.50
   5   7 -11  -17.00   36.10
  -5  -6  11  229.08   24.50
   5   6 -11  232.08   66.59
  -5  -5  11   14.10    6.90
   5   5 -11   25.60   25.30
  -5  -4  11  352.96   28.60
   5   4 -11  278.87   72.69
  -5  -3  11   89.09   10.80
   5   3 -11   72.89   36.30
   5   3 -11   82.59   37.30
   5   2 -11   -9.70   25.50
   5   2 -11   16.20   17.30
   5   1 -11  225.88   80.19
   5   1 -11  310.77   72.59
   5   0 -11    7.10   27.20
   5   0 -11   34.50   28.10
  -5   1  11  137.99   18.80
   5  -1 -11   82.19   53.59
  -5   2  11  407.76   34.10
   5  -2 -11  313.07  101.69
  -5   3  11  159.48   23.60
   5  -3 -11   91.19   70.19
  -5   4  11   -0.20    8.90
   5  -4 -11    9.20   50.39
  -4  -8  11   -2.90    6.70
   4   8 -11    2.20   30.30
  -4  -7  11    0.50    5.70
   4   7 -11   10.50   19.90
  -4  -6  11   71.39   15.80
   4   6 -11   52.49   38.10
  -4  -5  11  153.08   20.00
   4   5 -11  138.99   52.19
   4   4 -11   38.40   36.70
  -4  -3  11  129.09   14.50
  -4  -3  11  159.88   16.00
   4   3 -11   63.79   36.30
   4   3 -11  146.19   51.29
  -4  -2  11   68.39    9.10
   4   2 -11   81.89   49.70
   4   2 -11   27.20   34.40
   4   1 -11  131.89   57.19
   4   1 -11  194.28   52.69
   4   0 -11  -19.70   20.50
   4   0 -11  -10.90   17.80
  -4   1  11   70.79   15.40
   4  -1 -11   32.60   34.30
  -4   2  11   15.90   10.60
   4  -2 -11    8.90   40.60
  -4   3  11  129.79   25.30
   4  -3 -11   62.69   60.19
  -4   4  11   14.20   11.00
   4  -4 -11   -6.90   37.20
   4  -5 -11   75.89   62.19
  -3  -8  11   30.50   13.00
   3   8 -11   85.59   43.40
  -3  -7  11    5.80    6.40
   3   7 -11  -33.30   20.00
  -3  -6  11  705.63   56.19
   3   6 -11  802.62  105.59
  -3  -5  11   43.40   12.00
   3   5 -11   18.80   25.80
  -3  -4  11  429.46   35.90
   3   4 -11  581.54   84.69
   3   3 -11   61.79   29.20
   3   3 -11   48.00   41.40
  -3  -2  11  621.04   43.10
  -3  -2  11  780.22   50.69
   3   2 -11  731.63   98.19
  -3  -1  11   67.99   12.10
  -3  -1  11   61.99   13.10
   3   1 -11   -7.50   18.90
   3   1 -11   22.20   25.40
  -3   0  11  713.93   47.10
  -3   0  11  619.74   40.90
   3   0 -11  840.22  103.19
   3   0 -11  464.35  111.69
  -3   1  11  156.48   20.20
  -3   1  11  118.49   14.30
   3  -1 -11  138.69   62.79
  -3   2  11   19.20   11.90
   3  -3 -11   48.80   35.20
  -3   4  11  130.59   29.20
   3  -4 -11   62.79   58.09
  -3   5  11    9.30   12.80
   3  -5 -11   -3.90   34.00
  -3   6  11  242.48   36.40
   2   8 -11   30.20   60.99
   2   8 -11   54.99   12.30
  -2  -7  11    4.10    5.30
   2   7 -11   13.00    6.00
   2   7 -11   42.30   29.20
  -2  -6  11   84.59   17.70
   2   6 -11   84.39   38.80
  -2  -5  11    5.00    5.10
   2   5 -11   19.50   23.50
   2   3 -11  201.98   58.29
   2   3 -11  122.99   35.40
  -2  -2  11   71.89   17.20
   2   2 -11   55.79   28.50
   2   2 -11   24.30   25.40
  -2  -1  11   37.70    9.10
  -2  -1  11   74.69   16.30
   2   1 -11    1.30   21.80
   2   1 -11   50.49   31.70
  -2   0  11   54.09   10.50
  -2   0  11   76.49   15.90
   2   0 -11   48.10   35.70
   2   0 -11   40.70   30.70
  -2   1  11  695.93   51.59
  -2   1  11  637.74   42.80
   2  -1 -11  512.35   98.29
  -2   2  11  205.68   32.20
   2  -2 -11  140.79   57.29
  -2   3  11   -9.40   12.50
   2  -3 -11  -31.20   24.80
  -2   4  11  172.08   34.50
   2  -4 -11   51.09   52.09
  -2   5  11    9.40   11.20
   2  -5 -11   -8.30   28.80
  -2   6  11   96.09   24.20
   2  -6 -11  133.99  104.89
  -1  -8  11   39.30   18.10
   1   8 -11   52.89   12.80
   1   8 -11   87.39   43.70
  -1  -7  11   52.39   17.60
   1   7 -11   49.10   13.40
   1   7 -11   52.09   32.70
  -1  -6  11   61.09   16.90
   1   6 -11   86.09   13.40
   1   6 -11  117.89   45.00
  -1  -5  11   33.80   13.20
   1   5 -11  -20.80   17.20
   1   5 -11   30.60    8.40
  -1  -4  11  202.18   31.80
   1   4 -11  183.58   16.10
   1   4 -11   79.59   47.20
   1   4 -11  154.38   30.10
  -1  -3  11  -11.50    6.30
   1   3 -11    3.70    2.90
   1   3 -11   -3.40   20.40
   1   3 -11    4.20   12.40
  -1  -2  11  234.78   27.70
   1   2 -11  147.49   41.00
   1   2 -11  245.48   63.49
  -1  -1  11  247.18   28.70
   1   1 -11  158.18   50.99
   1   1 -11  216.78   55.69
  -1   0  11   10.60    8.30
   1   0 -11    9.80   22.10
  -1   1  11  193.68   30.40
   1  -1 -11  156.18   56.79
   1  -2 -11   33.10   26.20
  -1   3  11  205.38   36.50
   1  -3 -11  146.59   57.99
  -1   4  11  268.07   42.90
   1  -4 -11  210.58   70.09
  -1   5  11   44.80   20.10
   1  -5 -11   45.90   44.80
  -1   6  11  200.78   37.90
   1  -6 -11  179.68   72.69
  -1   7  11   96.49   26.10
   1  -7 -11   22.50   38.60
   0  -7  11   80.29   22.00
   0   7 -11   90.49   41.00
   0   7 -11   59.79   14.00
   0  -6  11   88.79   25.70
   0   6 -11  115.09   18.00
   0   6 -11  136.39   53.19
   0  -5  11  419.16   45.20
   0   5 -11  344.37   77.09
   0   5 -11  408.96   32.20
   0  -4  11  101.79   22.70
   0   4 -11  102.79   13.60
   0   4 -11   79.09   33.80
   0  -3  11 1070.79   82.89
   0   3 -11 1255.67   76.29
   0   3 -11 1104.39   73.39
   0   3 -11 1141.69  122.39
   0  -2  11   52.89   18.80
   0   2 -11   76.29    9.90
   0   2 -11   82.89   15.10
   0   2 -11  115.69   33.20
   0   2 -11   96.89   40.00
   0  -1  11  270.37   31.30
   0   1 -11  281.47   68.79
   0   1 -11  230.18   20.80
   0   1 -11  235.18   19.30
   0   1 -11  320.97   53.49
   0   0  11    9.40    8.90
   0   0 -11   21.10    5.50
   0   0 -11   22.90   21.60
   0   1  11 3112.69  178.78
   0  -1 -11 2942.41  156.38
   0  -1 -11 2926.71  156.38
   0  -1 -11 2911.41  225.88
   0   2  11  123.59   27.20
   0  -2 -11   74.89   36.10
   0  -2 -11   92.99   10.60
   0   3  11    8.60   11.80
   0  -3 -11   22.00   23.60
   0  -3 -11  -16.30    7.90
   0  -3 -11   -0.60    3.70
   0   4  11    8.70   17.90
   0  -4 -11   -3.00    3.70
   0  -4 -11    2.20   18.70
   0  -4 -11   11.70   10.80
   0   5  11  690.73   66.19
   0  -5 -11  530.15   37.80
   0  -5 -11  660.53   54.39
   0  -5 -11  560.74   94.39
   0   6  11  -18.20   10.10
   0  -6 -11    5.60   24.90
   0  -6 -11   -2.20    4.80
   0   7  11   44.80   16.60
   1  -7  11   86.79   27.00
  -1   7 -11   65.09   32.40
  -1   7 -11   60.99   13.80
   1  -6  11   27.00   16.90
  -1   6 -11   24.90    9.10
  -1   6 -11   56.49   37.70
   1  -5  11  138.79   30.20
  -1   5 -11  107.99   20.40
  -1   5 -11  122.89   44.20
   1  -4  11  717.93   64.39
  -1   4 -11  654.93   46.90
  -1   4 -11  626.44   85.49
   1  -3  11  211.78   36.20
  -1   3 -11  183.98   31.90
  -1   3 -11   93.79   45.20
  -1   3 -11  221.38   20.70
   1  -2  11  248.78   33.10
  -1   2 -11  204.48   19.60
  -1   2 -11  174.28   52.69
  -1   2 -11  204.48   36.60
   1  -1  11  227.78   31.10
  -1   1 -11  210.28   38.00
  -1   1 -11  224.88   27.40
  -1   1 -11  206.18   19.40
   1   0  11  362.46   39.50
  -1   0 -11  348.77   50.49
  -1   0 -11  366.06   26.80
  -1   0 -11  270.57   26.80
   1   1  11  110.19   25.20
  -1  -1 -11  141.59   38.90
  -1  -1 -11  139.79   15.20
   1   2  11    9.60   11.60
  -1  -2 -11    8.30   14.60
  -1  -2 -11    4.30    5.40
  -1  -2 -11   -4.70    6.20
   1   3  11   16.50   13.40
  -1  -3 -11    2.30   13.30
  -1  -3 -11   14.80   19.50
   1   4  11  109.59   30.60
  -1  -4 -11  155.98   31.00
  -1  -4 -11  129.49   16.60
  -1  -4 -11  120.39   46.90
   1   5  11   68.09   27.00
  -1  -5 -11   20.60   26.60
  -1  -5 -11   68.39   13.30
   1   6  11  116.49   29.30
  -1  -6 -11  131.89   48.40
  -1  -6 -11  103.39   18.00
   1   7  11    4.70   10.00
  -1  -7 -11   -1.10    6.20
  -1  -7 -11   -5.60   17.70
   1   8  11  110.79   28.30
  -1  -8 -11  109.99   17.50
  -1  -8 -11  173.48   59.29
   2  -6  11   83.69   33.30
  -2   6 -11   24.80   29.50
  -2   6 -11   61.79   14.40
   2  -5  11   80.29   23.20
  -2   5 -11   39.80   11.20
  -2   5 -11   71.79   32.40
   2  -4  11   87.59   22.70
  -2   4 -11   71.69   38.60
  -2   4 -11  110.59   20.20
   2  -3  11    3.60   12.80
  -2   3 -11   10.00   10.30
  -2   3 -11   -1.30    4.80
   2  -2  11   56.59   18.40
  -2   2 -11   43.50   11.10
   2  -1  11   22.10   12.80
  -2   1 -11   30.80    9.40
   2   0  11   79.49   22.40
   2   1  11 1002.60   82.39
  -2  -1 -11 1013.50   92.99
  -2  -1 -11 1010.30   63.99
   2   2  11   14.90   12.30
  -2  -2 -11   12.10    5.00
  -2  -2 -11   -4.20    7.70
   2   3  11   -3.30   11.50
  -2  -3 -11   14.60   11.90
  -2  -3 -11   23.10    8.20
   2   4  11  123.89   33.90
  -2  -4 -11  164.68   20.70
  -2  -4 -11  163.08   58.39
   2   5  11  926.71   91.39
  -2  -5 -11  995.30   67.59
  -2  -5 -11 1067.09  111.29
   2   6  11   17.30   14.10
  -2  -6 -11   17.30    6.80
  -2  -6 -11    9.40   16.90
   2   7  11   24.10   16.90
  -2  -7 -11   20.40   19.80
  -2  -7 -11   22.90    8.90
   2   8  11    3.60   11.60
  -2  -8 -11   14.70    8.30
  -2  -8 -11   30.30   30.20
   3  -6  11   25.60   18.20
  -3   6 -11    5.60    8.40
  -3   6 -11    9.70   33.00
   3  -5  11   14.90   19.40
  -3   5 -11   14.20    8.30
  -3   5 -11   14.60   29.70
   3  -4  11   21.00   13.10
  -3   4 -11   12.50    6.20
   3  -3  11   89.59   23.80
  -3   3 -11   78.29   15.90
  -3   3 -11   59.79   32.60
   3  -2  11  355.46   43.70
  -3   2 -11  382.96   32.90
   3  -1  11  463.15   52.29
  -3   1 -11  498.25   38.40
   3   0  11  132.49   28.60
  -3   0 -11  168.68   18.80
   3   1  11   93.89   25.10
  -3  -1 -11   71.59   14.40
   3   2  11  657.03   69.09
  -3  -2 -11  728.13   51.09
   3   3  11  266.67   51.29
  -3  -3 -11  299.47   29.30
   3   4  11  312.07   79.59
  -3  -4 -11  282.57   29.40
  -3  -4 -11  354.06   54.29
   3   5  11  194.08   45.60
  -3  -5 -11  178.28   24.00
  -3  -5 -11  157.88   40.70
   3   6  11   78.09   32.80
  -3  -6 -11  106.69   20.10
  -3  -6 -11  130.19   43.40
   3   7  11   47.00   22.30
  -3  -7 -11   29.70   12.70
  -3  -7 -11   49.50   23.80
   3   8  11  443.56   52.69
  -3  -8 -11  350.46   66.89
  -3  -8 -11  333.17   33.70
   4  -5  11   15.80   18.00
  -4   5 -11    1.20    7.00
   4  -4  11   46.30   21.60
  -4   4 -11   88.69   17.00
   4  -3  11  558.14   61.19
  -4   3 -11  492.35   42.00
   4  -2  11   86.59   27.80
  -4   2 -11   72.89   14.40
   4  -1  11  220.58   44.70
  -4   1 -11  228.98   24.30
   4   0  11  194.88   41.00
  -4   0 -11  148.59   19.10
  -4  -1 -11  149.09   18.50
  -4  -2 -11  166.18   19.70
   4   3  11  595.64   66.89
  -4  -3 -11  591.04   46.50
   4   4  11  -18.40   11.80
  -4  -4 -11    9.30    7.20
   4   5  11   88.09   31.50
  -4  -5 -11  104.09   21.50
   4   6  11   90.29   33.20
  -4  -6 -11   80.49   18.80
  -4  -6 -11   73.39   31.90
   4   7  11  115.39   33.50
  -4  -7 -11   84.29   18.30
  -4  -7 -11   96.89   37.00
   4   8  11   89.19   28.70
  -4  -8 -11   46.10   12.40
  -4  -8 -11   79.29   36.80
   5  -4  11   40.80   21.00
  -5   4 -11   66.09   15.40
   5  -3  11  -11.10   12.90
  -5   3 -11    8.80    6.10
   5  -2  11  288.57   53.29
  -5   2 -11  382.36   34.80
   5  -1  11  120.79   33.20
  -5   1 -11  105.59   19.00
   5   0  11   55.09   23.50
  -5   0 -11   57.29   12.70
   5   1  11  -17.90    9.20
  -5  -1 -11    7.10    5.50
   5   2  11  744.73   77.79
  -5  -2 -11  738.93   54.19
   5   3  11  343.27   58.59
  -5  -3 -11  366.86   34.00
   5   4  11  -10.40   14.80
  -5  -4 -11   12.00    7.70
   5   5  11   79.49   31.00
   5   6  11  203.18   50.89
  -5  -6 -11  193.48   26.10
   5   7  11   50.99   27.00
  -5  -7 -11   16.90    9.30
  -5  -7 -11   -0.90   20.10
   5   8  11  105.09   34.80
  -5  -8 -11  144.09   46.60
  -5  -8 -11  150.58   26.40
   6  -3  11   62.79   26.00
  -6   3 -11  104.79   20.00
   6  -2  11   92.29   40.10
  -6   2 -11   95.89   21.30
   6  -1  11  -33.60   12.40
  -6   1 -11   40.40   12.30
   6   0  11   80.09   26.70
  -6   0 -11   56.29   13.80
   6   1  11   28.60   18.70
  -6  -1 -11   29.70   10.00
   6   2  11   51.29   20.10
  -6  -2 -11   63.89   14.40
   6   3  11   40.80   19.70
  -6  -3 -11   48.20   12.80
   6   4  11   67.69   28.90
  -6  -4 -11   95.59   18.90
   6   5  11   17.60   19.80
   6   6  11  169.68   45.40
  -6  -6 -11  288.87   32.10
   6   7  11   49.40   27.60
  -6  -7 -11  100.99   22.20
   7  -1  11   -0.50   13.40
  -7   1 -11    5.90    7.60
   7   0  11  126.79   41.40
   7   1  11   13.00   15.20
  -7  -1 -11   12.90    7.50
   7   2  11    7.60   14.90
  -7  -2 -11    3.10    6.40
   7   3  11  130.49   38.20
  -7  -3 -11  120.79   21.10
   7   4  11  190.18   46.60
  -7  -4 -11  172.38   24.10
   7   6  11   48.90   28.90
  -7  -6 -11   15.40    9.30
   8   1  11   24.00   21.60
  -8  -1 -11    3.40    5.90
   8   2  11  119.89   39.50
  -8  -2 -11  108.09   18.70
   8   3  11  104.19   31.90
  -8  -3 -11   93.69   18.50
   8   4  11    8.10   20.00
  -8  -4 -11    2.70    7.60
   8   5  11   17.60   27.30
  -8  -5 -11   45.80   15.40
   7   5 -12  323.27   78.39
   7   4 -12    5.30   28.20
   7   3 -12   32.30   34.70
   7   2 -12   15.70   36.90
   7   2 -12  -48.20   28.00
   7   1 -12   -0.70   38.50
   7   1 -12    6.00   38.60
  -6  -6  12   30.10    8.70
   6   6 -12   17.30   27.30
  -6  -5  12   22.00   10.10
  -6  -4  12   20.50    6.80
   6   4 -12   19.00   21.80
   6   3 -12   14.90   23.40
   6   2 -12   47.50   33.50
   6   2 -12   34.50   30.70
   6   1 -12   22.50   32.60
   6   1 -12    0.10   32.40
   6   0 -12  -13.60   29.40
   6  -1 -12   60.79   59.79
   6  -2 -12   14.00   45.90
  -5  -7  12   23.60   10.30
   5   7 -12   34.30   36.20
  -5  -6  12    5.10    8.20
   5   6 -12  -42.40   26.80
  -5  -5  12  376.66   32.10
   5   5 -12  314.67   79.39
   5   4 -12  241.18   70.79
  -5  -3  12   43.20    8.80
   5   3 -12   40.50   23.90
   5   3 -12   41.20   33.70
   5   2 -12   61.99   35.80
   5   2 -12   56.19   35.20
   5   1 -12  264.57  102.99
   5   1 -12  538.65  104.49
   5   0 -12   63.89   43.90
   5  -1 -12   60.89   34.80
  -5   2  12    8.60   10.10
   5  -2 -12   -7.70   41.90
  -5   3  12   20.90   11.70
   5  -3 -12   48.20   59.79
  -4  -7  12   44.90   12.50
   4   7 -12   43.30   39.60
   4   6 -12  -20.30   18.30
  -4  -5  12  192.78   22.60
   4   5 -12  171.18   59.39
  -4  -4  12  662.23   46.20
   4   4 -12  485.95   99.69
   4   3 -12  102.79   43.20
   4   3 -12   72.49   42.80
  -4  -2  12  278.87   24.80
  -4  -2  12  196.68   17.90
   4   2 -12  241.28   64.09
   4   2 -12  169.18   60.29
  -4  -1  12  152.68   19.10
  -4  -1  12  184.28   17.30
   4   1 -12  120.49   52.89
   4   1 -12  121.99   48.30
  -4   0  12  102.69   15.80
   4   0 -12   43.10   40.00
  -4   1  12  148.59   14.20
  -4   1  12  120.59   22.30
   4  -1 -12   92.59   53.39
  -4   2  12  555.74   49.10
   4  -2 -12  270.67  105.99
  -4   3  12  146.19   25.40
   4  -3 -12   58.99   55.99
  -4   4  12   -5.40   12.10
   4  -4 -12    2.40   49.90
  -3  -7  12   48.40   14.00
  -3  -6  12   18.40    8.60
   3   6 -12   -4.50   19.70
  -3  -5  12   10.00    7.70
   3   5 -12  -17.80   20.20
   3   4 -12   -5.10   20.00
   3   3 -12   51.09   28.60
   3   3 -12   64.89   32.00
  -3  -2  12   20.60   10.40
   3   2 -12   28.40   24.30
   3   2 -12   27.90   26.60
  -3  -1  12  281.87   22.90
  -3  -1  12  390.66   31.90
   3   1 -12  144.29   58.49
   3   1 -12  299.97   77.49
  -3   0  12  100.89   14.20
  -3   0  12  133.69   18.00
   3   0 -12   39.00   37.60
  -3   1  12  101.49   19.70
   3  -1 -12   75.39   48.10
  -3   2  12   36.40   15.90
   3  -2 -12   -1.20   35.60
  -3   3  12  324.37   38.70
   3  -3 -12   69.89   66.59
  -3   4  12  -34.50   13.00
   3  -4 -12   41.70   35.70
  -3   5  12   35.90   17.10
   3  -5 -12  -17.40   38.70
   2   7 -12   27.60   27.70
   2   6 -12  -26.80   15.70
  -2  -5  12   81.09   21.80
   2   5 -12  -12.50   28.80
  -2  -4  12 1094.19   77.49
   2   4 -12  928.41  119.59
  -2  -3  12   12.30    8.00
   2   3 -12   -7.00   20.60
   2   3 -12   13.10   19.50
   2   2 -12   81.69   33.00
  -2  -1  12   10.30    8.50
   2   1 -12  -14.50   17.60
   2   1 -12   30.20   23.80
  -2   0  12  916.71   61.49
   2   0 -12  573.84  101.09
  -2   1  12    9.80   10.40
   2  -1 -12   -3.30   21.20
  -2   2  12  595.34   61.99
   2  -2 -12  572.64  145.09
  -2   3  12    3.70   13.90
   2  -3 -12    6.10   31.00
  -2   4  12   -0.30   12.40
   2  -4 -12  -24.50   26.40
   2  -5 -12  -13.60   34.80
  -2   6  12  273.07   43.20
   2  -6 -12   78.79   55.19
  -1  -7  12   18.30   12.60
   1   7 -12    4.60    6.30
   1   7 -12  -64.79   26.80
  -1  -6  12  114.49   25.90
   1   6 -12   74.59   12.90
   1   6 -12   90.49   40.00
  -1  -5  12  220.28   28.90
   1   5 -12  171.28   17.00
   1   5 -12  244.28   65.09
  -1  -4  12  343.87   37.00
   1   4 -12  287.77   72.79
   1   4 -12  311.37   22.20
   1   4 -12  287.47   26.40
  -1  -3  12   82.19   20.20
   1   3 -12   12.40   16.30
  -1  -2  12  308.27   35.00
   1   2 -12  292.67   62.19
   1   2 -12  312.27   74.19
  -1  -1  12  355.06   35.90
   1   1 -12  271.67   71.29
   1   1 -12  236.18   63.59
  -1   0  12  312.57   41.80
   1   0 -12  250.07   73.09
  -1   1  12   29.50   14.70
   1  -1 -12   63.79   35.50
  -1   2  12  181.98   32.30
   1  -2 -12  139.19   49.30
  -1   3  12  750.22   63.89
   1  -3 -12  478.75  110.69
  -1   4  12  222.88   41.30
   1  -4 -12  145.29   59.99
   1  -5 -12   -7.60   26.20
  -1   6  12   62.69   21.30
   0  -7  12    4.20   12.50
   0   7 -12   38.50   36.40
   0   7 -12   13.10    7.90
   0  -6  12  161.18   31.60
   0   6 -12  247.68   71.39
   0  -5  12   26.90   15.70
   0   5 -12   45.70   11.30
   0   5 -12   32.80   32.10
   0  -4  12    4.50    8.00
   0   4 -12    6.20    4.80
   0  -3  12  -13.70    8.40
   0   3 -12    8.40    4.10
   0   3 -12   -8.40   13.70
   0   3 -12   13.60    9.50
   0   3 -12   -3.50   15.60
   0  -2  12  993.30   73.89
   0   2 -12  895.71   52.89
   0   2 -12  892.41   94.49
   0   2 -12  857.51  109.09
   0   2 -12  834.72   56.39
   0  -1  12    1.80    8.40
   0   1 -12  -11.10   10.60
   0   1 -12   11.50   22.80
   0   1 -12   -1.00    4.80
   0   1 -12   11.80    5.20
   0   0  12  245.38   33.00
   0   0 -12  287.57   55.59
   0   1  12    6.50    8.00
   0  -1 -12   22.90   19.40
   0   2  12   13.80   11.70
   0  -2 -12  -10.30   17.20
   0   3  12    8.90   16.00
   0  -3 -12   48.10   30.20
   0   4  12   22.50   17.60
   0  -4 -12   15.10   12.80
   0   5  12  144.39   38.80
   0  -5 -12  135.49   13.20
   0  -5 -12  215.78   67.69
   0   6  12  304.37   41.50
   0  -6 -12  260.37   76.69
   0   7  12   15.10   13.90
   0  -7 -12  -31.90   24.50
   1  -6  12   -1.00   11.70
  -1   6 -12   15.30    6.80
  -1   6 -12   18.00   22.60
   1  -5  12   -9.20    8.00
  -1   5 -12  -25.10   21.20
  -1   5 -12    0.80    5.30
   1  -4  12   27.40   11.10
  -1   4 -12   36.40   10.30
  -1   4 -12   21.90   37.10
   1  -3  12  245.68   33.50
  -1   3 -12  191.88   33.10
  -1   3 -12  173.18   19.30
  -1   3 -12  219.88   59.89
   1  -2  12  159.58   32.90
  -1   2 -12  171.68   49.10
  -1   2 -12  123.19   36.00
  -1   2 -12  160.98   16.90
   1  -1  12  225.98   37.20
  -1   1 -12  258.17   56.99
  -1   1 -12  197.88   19.10
   1   0  12  208.78   37.00
  -1   0 -12  228.58   43.70
  -1   0 -12  229.58   27.20
  -1   0 -12  240.48   24.00
   1   1  12   17.70   11.00
  -1  -1 -12   12.80    6.90
  -1  -1 -12   -1.10    4.80
  -1  -1 -12   43.70   22.90
   1   2  12   67.59   21.10
  -1  -2 -12   89.39   15.00
  -1  -2 -12  105.39   37.90
   1   3  12 1129.79   92.29
  -1  -3 -12 1095.19  114.39
  -1  -3 -12 1089.69   76.69
   1   4  12  108.29   29.20
  -1  -4 -12  120.79   15.10
  -1  -4 -12   96.09   24.90
  -1  -4 -12  142.19   47.10
   1   5  12    4.50   18.00
  -1  -5 -12   22.30   19.30
  -1  -5 -12    1.30    7.00
   1   6  12   27.50   16.40
  -1  -6 -12    4.70   16.80
  -1  -6 -12   -1.60    5.50
   1   7  12  437.26   51.79
  -1  -7 -12  329.27   28.60
  -1  -7 -12  455.85   86.59
   2  -6  12   71.39   26.70
  -2   6 -12   99.69   17.20
  -2   6 -12   94.59   41.10
   2  -5  12    5.60   14.70
  -2   5 -12   76.19   31.90
   2  -4  12   12.60   12.60
  -2   4 -12   84.69   39.30
  -2   4 -12   50.29   11.40
   2  -3  12    9.80   11.10
  -2   3 -12   25.30   15.30
  -2   3 -12   17.50    6.80
  -2   3 -12    7.90   24.60
  -2   2 -12 1356.96  102.99
  -2   2 -12 1132.59   74.89
   2  -1  12  176.98   35.60
  -2   1 -12  108.99   31.00
  -2   1 -12  133.09   15.80
   2   0  12   49.90   18.50
  -2   0 -12   34.60   16.70
  -2   0 -12   43.60   11.00
   2   1  12  220.68   39.50
  -2  -1 -12  216.08   38.30
  -2  -1 -12  207.08   21.40
   2   2  12  996.10   83.99
  -2  -2 -12  877.11   60.89
  -2  -2 -12  987.90   95.09
   2   3  12   30.80   20.10
  -2  -3 -12   56.79   26.20
  -2  -3 -12   62.19   14.40
  -2  -4 -12   10.10   13.40
  -2  -4 -12    8.60    7.40
   2   5  12   22.00   24.20
  -2  -5 -12   24.80    9.40
  -2  -5 -12   27.50   21.40
   2   6  12   34.70   19.90
  -2  -6 -12   17.60   23.30
  -2  -6 -12   11.10    7.10
   2   7  12   77.49   27.20
  -2  -7 -12   54.59   12.70
  -2  -7 -12  106.89   40.90
   3  -5  12   -8.90   12.40
  -3   5 -12   23.30    9.30
   3  -4  12   78.19   22.00
  -3   4 -12   50.79   13.30
   3  -3  12  225.18   42.50
  -3   3 -12  202.88   22.80
   3  -2  12   19.00   13.60
   3  -1  12   26.90   15.50
  -3   1 -12   13.30    7.00
  -3   0 -12    5.00    4.20
   3   1  12   49.70   19.10
  -3  -1 -12   26.20    7.90
  -3  -2 -12   13.00    6.30
   3   3  12  148.39   36.40
  -3  -3 -12  103.89   18.50
   3   4  12   13.10   15.70
  -3  -4 -12   23.00    9.20
  -3  -4 -12   34.20   19.60
   3   5  12   56.29   30.10
  -3  -5 -12   58.19   18.30
  -3  -5 -12   79.79   33.20
   3   6  12   26.30   24.60
  -3  -6 -12   35.00   27.20
  -3  -6 -12   49.60   13.50
   3   7  12  199.08   51.69
  -3  -7 -12  211.98   57.19
  -3  -7 -12  169.58   22.60
   4  -4  12   34.20   21.60
  -4   4 -12   33.50   10.60
   4  -3  12   99.09   28.90
  -4   3 -12   57.59   14.10
   4  -2  12   35.40   19.80
   4  -1  12   17.10   12.90
  -4   1 -12   -0.80    4.90
   4   0  12  253.37   48.30
  -4   0 -12  193.28   21.90
   4   1  12  170.18   36.80
   4   2  12  163.68   38.50
  -4  -2 -12  187.08   33.00
   4   3  12   -1.10   18.00
  -4  -3 -12   18.00   11.60
   4   4  12  190.98   43.00
  -4  -4 -12  157.08   21.00
   4   5  12  453.05   63.29
  -4  -5 -12  432.76   40.90
  -4  -5 -12  544.45   73.29
   4   6  12   41.40   27.40
  -4  -6 -12   41.60   24.70
  -4  -6 -12    9.00    9.30
   4   7  12   22.40   18.80
  -4  -7 -12   41.10   13.60
  -4  -7 -12   42.90   27.90
   5  -3  12   30.40   17.00
   5  -2  12   -4.20   11.60
  -5   2 -12    5.80    6.70
   5  -1  12  600.34   67.99
  -5   1 -12  564.84   45.00
   5   0  12  149.19   33.40
  -5   0 -12  143.39   22.80
   5   1  12  -10.10   14.10
  -5  -1 -12   39.10    9.90
   5   2  12   26.30   14.90
   5   3  12  330.87   58.69
  -5  -3 -12  250.37   27.00
   5   4  12   22.30   18.30
  -5  -4 -12   26.20   11.50
   5   5  12  358.66   64.49
  -5  -5 -12  330.57   33.80
   5   6  12   28.70   37.50
  -5  -6 -12   30.30   10.40
   5   7  12   -0.90   15.50
  -5  -7 -12   -9.70   14.70
  -5  -7 -12   -0.40    9.10
   6  -2  12   31.30   18.40
  -6   2 -12   53.39   13.30
  -6   1 -12   95.79   17.60
   6   0  12  132.99   35.10
  -6   0 -12  172.18   21.80
   6   1  12  -14.30   13.00
  -6  -1 -12   -7.80    5.30
   6   2  12  -13.70   15.70
  -6  -2 -12    0.30    6.90
   6   3  12  121.09   36.90
  -6  -3 -12  110.09   19.60
   6   4  12  248.28   52.69
  -6  -4 -12  271.17   29.80
  -6  -5 -12   57.49   16.20
   6   6  12   25.40   28.30
   7   0  12  104.19   34.90
  -7   0 -12  151.48   23.70
   7   1  12   25.60   18.60
  -7  -1 -12   25.60    9.60
   7   2  12   -1.60   20.80
  -7  -2 -12   12.40   12.40
   7   3  12  133.89   38.30
  -7  -3 -12  128.79   29.90
   7   4  12  -11.20   22.20
  -7  -4 -12   42.00   12.00
   7   5  12   16.40   23.00
  -7  -5 -12   16.00    9.70
   7   3 -13  107.69   52.59
   7   2 -13   70.89   39.20
   7   2 -13   29.00   39.90
   6   5 -13   54.89   42.00
   6   4 -13   40.00   41.20
   6   3 -13  234.48   74.49
   6   2 -13   -9.90   26.20
   6   2 -13    1.00   29.50
   6   1 -13   45.50   37.90
   6   1 -13   27.70   34.50
   6   0 -13   32.40   41.30
   6  -1 -13  103.29   74.49
  -5  -6  13   27.70    9.30
   5   6 -13  -17.20   28.90
  -5  -5  13  -13.90    6.90
   5   5 -13   -8.30   25.90
   5   4 -13  101.29   46.70
  -5  -3  13   46.10   12.30
   5   3 -13   89.99   44.90
   5   3 -13   41.80   40.20
   5   2 -13   37.20   33.00
   5   2 -13   92.29   43.70
   5   1 -13    8.30   22.70
   5   1 -13   13.20   37.90
   5   0 -13   52.69   45.20
   5  -1 -13  -50.79   29.80
   5  -2 -13   49.20   54.59
   5  -3 -13  -23.40   48.30
  -4  -6  13    1.90    7.50
   4   6 -13   11.20   27.80
  -4  -5  13    1.10    7.00
   4   5 -13   10.30   29.80
   4   4 -13    7.50   26.40
  -4  -3  13  306.57   30.70
   4   3 -13  186.58   61.49
   4   3 -13  268.37   66.49
  -4  -2  13   59.19   16.40
   4   2 -13   26.60   32.60
   4   2 -13   10.00   28.30
  -4  -1  13   22.70    9.10
   4   1 -13    7.70   23.80
   4   1 -13    1.50   25.40
  -4   0  13   40.20   13.00
   4   0 -13  -34.50   28.30
  -4   1  13  571.54   47.90
   4  -2 -13   68.69   57.09
  -4   3  13    8.10   12.60
   4  -3 -13  -25.50   30.90
  -4   4  13   23.00   16.60
   4  -4 -13   11.90   53.69
   3   7 -13   45.30   38.40
   3   6 -13   54.79   40.40
   3   5 -13   58.89   37.50
  -3  -4  13  128.09   25.80
   3   4 -13  128.89   53.99
  -3  -3  13  597.04   49.50
   3   3 -13  469.65   95.79
  -3  -2  13  259.97   29.30
   3   2 -13  197.38   60.19
   3   2 -13  150.48   56.69
   3   1 -13   58.79   44.60
   3   1 -13   86.09   45.50
  -3   0  13   22.50   10.00
   3   0 -13   33.80   31.30
  -3   1  13  197.88   28.90
   3  -1 -13  192.28   79.59
  -3   2  13  104.19   22.70
   3  -2 -13  -17.20   33.40
  -3   3  13   47.80   17.40
   3  -3 -13   -8.10   32.40
  -3   4  13  382.16   47.80
   3  -4 -13  290.47  142.99
  -3   5  13   87.99   21.60
   3  -5 -13   27.70   54.79
  -2  -7  13  399.56   47.90
   2   7 -13  354.56   84.59
  -2  -6  13   16.40   13.20
   2   6 -13  -21.40   25.70
  -2  -5  13  235.48   32.20
   2   5 -13  198.58   63.69
  -2  -4  13   32.90   10.60
   2   4 -13   26.90   26.60
   2   3 -13  187.58   49.50
   2   3 -13  260.57   69.29
  -2  -2  13   -2.90    7.40
   2   2 -13   15.60   16.30
   2   2 -13   17.50   19.20
  -2  -1  13  723.43   57.29
   2   1 -13  623.94   94.79
   2   0 -13   16.30   24.90
  -2   1  13  127.49   24.30
   2  -1 -13   88.89   51.49
  -2   2  13   21.40   12.00
   2  -2 -13   23.80   38.50
  -2   3  13  100.19   24.70
   2  -3 -13   78.19   49.60
  -2   4  13    8.60   17.20
   2  -4 -13   22.30   37.20
  -2   5  13  160.98   33.00
   2  -5 -13  126.59   59.29
  -1  -6  13  148.79   32.40
   1   6 -13  111.89   15.20
   1   6 -13   79.39   40.70
   1   5 -13   18.70   30.10
  -1  -4  13   52.89   15.10
   1   4 -13  123.99   38.70
  -1  -3  13    5.90   11.40
   1   3 -13    6.70   17.40
   1   3 -13   -6.60   19.00
  -1  -2  13  288.27   35.50
   1   2 -13  316.27   76.19
   1   2 -13  170.78   51.19
  -1  -1  13    8.00    9.30
   1   1 -13    0.30   21.60
   1   1 -13   -5.80   22.90
  -1   0  13   60.99   18.90
   1   0 -13   43.90   35.40
  -1   1  13   -0.80    6.80
   1  -1 -13  -22.30   20.30
  -1   2  13  167.38   32.00
   1  -2 -13   69.29   48.50
  -1   3  13   -4.00   11.60
   1  -3 -13    2.90   25.10
  -1   4  13  202.08   39.60
   1  -4 -13  137.49   53.79
  -1   5  13   11.40   15.80
   1  -5 -13   16.50   32.40
  -1   6  13    5.90   14.90
   1  -6 -13   20.60   38.80
   0  -6  13  -19.70   10.70
   0   6 -13   14.60   14.00
   0   6 -13   11.30   27.50
   0  -5  13    4.10   10.80
   0   5 -13    9.40    6.20
   0   5 -13   -5.60   24.50
   0  -4  13   34.00   14.50
   0   4 -13   40.40    8.40
   0   4 -13    0.70   25.10
   0  -3  13  514.25   48.40
   0   3 -13  411.46   86.09
   0   3 -13  378.16   34.80
   0  -2  13   45.00   16.40
   0   2 -13   55.69    9.50
   0   2 -13   55.69   12.20
   0   2 -13  114.79   43.00
   0   2 -13   30.20   28.90
   0  -1  13  263.97   34.40
   0   1 -13  308.97   69.79
   0   0  13  262.07   34.00
   0   0 -13  179.88   52.19
   0   1  13   49.20   18.30
   0  -1 -13   55.89   32.60
   0   2  13  336.57   39.90
   0  -2 -13  183.68   58.39
   0   3  13  366.66   45.20
   0  -3 -13  325.87   63.59
   0   4  13   -7.30   15.00
   0  -4 -13   31.90   29.10
   0   5  13   91.69   27.00
   0  -5 -13  129.09   53.69
   0   6  13   97.09   26.80
   0  -6 -13   68.49   36.00
   1  -6  13   30.70   17.00
  -1   6 -13   45.80   11.90
  -1   6 -13   -2.70   24.00
   1  -5  13   79.59   26.90
  -1   5 -13  123.69   46.10
  -1   5 -13  117.89   18.30
   1  -4  13  155.88   32.20
  -1   4 -13  166.58   18.60
  -1   4 -13  196.08   52.59
   1  -3  13   74.39   23.40
  -1   3 -13  107.29   13.90
  -1   3 -13   80.99   36.80
  -1   2 -13    9.50   17.20
  -1   2 -13    8.10    4.50
   1  -1  13   -4.00   10.50
  -1   1 -13    6.40    4.70
  -1   1 -13  -18.50   14.40
   1   0  13  797.92   68.99
  -1   0 -13  689.63   49.90
  -1   0 -13  764.22   87.49
   1   1  13   32.10   13.40
  -1  -1 -13    9.80    8.90
  -1  -1 -13   13.40    6.90
  -1  -1 -13    6.70   17.30
  -1  -2 -13   -5.70    4.70
  -1  -2 -13   -5.80   12.70
   1   3  13   21.10   12.50
  -1  -3 -13   37.50   19.90
   1   4  13  339.67   45.90
  -1  -4 -13  310.27   25.90
  -1  -4 -13  293.37   67.79
   1   5  13  103.69   29.60
  -1  -5 -13   72.29   36.60
  -1  -5 -13   54.59   10.70
   1   6  13    4.80   11.80
  -1  -6 -13   -2.10    6.40
   1   7  13   55.59   26.10
  -1  -7 -13   56.69   36.80
   2  -5  13  208.68   59.49
  -2   5 -13  249.58   73.49
  -2   5 -13  301.87   28.10
   2  -4  13   68.09   24.30
  -2   4 -13  140.99   17.30
  -2   4 -13  124.39   54.39
   2  -3  13   13.00   10.90
  -2   3 -13   12.10   16.80
  -2   3 -13   -4.40    5.00
   2  -2  13   45.90   16.60
  -2   2 -13   32.90    9.30
   2  -1  13  220.18   40.30
  -2   1 -13  329.67   48.70
  -2   1 -13  297.47   26.00
   2   0  13   39.20   13.20
  -2   0 -13    1.30   12.60
  -2   0 -13    0.60    4.80
  -2  -1 -13   10.10    6.20
  -2  -1 -13   10.90   13.50
   2   2  13  104.79   28.20
  -2  -2 -13   87.89   16.20
  -2  -2 -13   94.19   33.40
   2   3  13   14.80   15.50
  -2  -3 -13   30.90   17.80
  -2  -3 -13   47.20   11.00
   2   4  13   47.30   22.50
  -2  -4 -13   15.80    8.00
  -2  -4 -13   29.80   18.80
   2   5  13   94.09   30.40
  -2  -5 -13  121.99   41.80
  -2  -5 -13  106.49   18.60
   2   6  13  190.38   37.30
  -2  -6 -13  156.38   52.59
  -2  -6 -13  170.78   21.00
   2   7  13   61.49   27.70
  -2  -7 -13  100.29   16.50
  -2  -7 -13   55.19   34.00
   3  -5  13  105.19   27.90
  -3   5 -13   90.69   19.80
  -3   4 -13   66.99   14.00
   3  -3  13   54.99   20.90
  -3   3 -13   84.69   27.30
  -3   3 -13   56.29   12.80
   3  -2  13  130.59   30.40
  -3   2 -13   89.99   16.40
   3  -1  13   32.70   17.90
  -3   1 -13   44.70   12.20
   3   0  13  890.41   79.29
  -3   0 -13  804.42   55.59
   3   1  13  112.79   28.40
  -3  -1 -13   99.19   31.10
  -3  -1 -13   83.69   15.30
   3   2  13   -9.60   12.20
  -3  -2 -13   -1.50   15.30
  -3  -2 -13    2.10    5.50
   3   3  13   36.00   19.80
  -3  -3 -13   44.60   12.90
  -3  -3 -13   38.80   22.60
   3   4  13  742.93   80.49
  -3  -4 -13  863.51   60.89
  -3  -4 -13  843.92   93.39
   3   5  13  -16.20   14.40
  -3  -5 -13  -14.90    9.50
  -3  -5 -13  -13.40    5.40
   3   6  13   25.70   21.50
  -3  -6 -13   16.20    8.90
  -3  -6 -13   51.39   33.70
   3   7  13   38.40   20.70
  -3  -7 -13   48.60   13.10
  -3  -7 -13   22.80   23.50
  -4   4 -13   37.00   11.00
   4  -3  13    0.20   24.50
  -4   3 -13   24.00    8.40
   4  -2  13  197.98   42.80
  -4   2 -13  235.78   24.90
   4  -1  13  227.58   41.50
  -4   1 -13  174.68   20.90
   4   0  13   41.80   19.90
  -4   0 -13   89.69   15.20
   4   1  13   80.59   26.20
  -4  -1 -13   60.99   13.90
   4   2  13  289.17   53.39
  -4  -2 -13  349.47   31.50
   4   3  13  -11.20   16.90
  -4  -3 -13   19.30    9.60
   4   4  13   24.40   20.40
  -4  -4 -13   64.69   29.60
  -4  -4 -13   32.20   11.30
   4   5  13   -5.50   17.20
  -4  -5 -13   -1.00    7.60
  -4  -5 -13   13.40   16.30
  -4  -6 -13   10.20    8.10
  -4  -6 -13    1.60   15.80
   4   7  13   89.89   30.60
  -4  -7 -13  107.59   44.10
  -4  -7 -13   98.99   17.80
   5  -3  13  -18.20   12.10
  -5   3 -13    8.30    8.30
   5  -2  13   -0.50   13.80
  -5   2 -13   -0.70    5.60
   5  -1  13   76.79   24.60
   5   0  13   -1.50   14.80
  -5   0 -13   -3.70    6.30
   5   1  13   51.99   26.00
  -5  -1 -13   87.29   16.60
   5   2  13   80.19   28.50
  -5  -2 -13   66.79   14.20
  -5  -3 -13    7.70    7.00
   5   4  13  169.38   47.40
  -5  -4 -13  167.48   25.20
   5   5  13    9.40   25.60
  -5  -5 -13   76.99   17.90
   5   6  13  108.19   34.80
  -5  -6 -13   29.60   22.60
  -5  -6 -13   53.89   13.00
   6  -1  13  -13.90   14.90
  -6   1 -13   10.30    7.70
   6   0  13   13.60   19.20
  -6   0 -13   -4.40    4.80
  -6  -1 -13  363.56   34.40
   6   2  13  146.79   57.09
  -6  -2 -13  201.38   23.30
  -6  -3 -13    3.90    5.50
   6   4  13   19.50   17.90
  -6  -4 -13   31.80   12.40
   6   5  13  218.58   48.40
  -6  -5 -13  219.08   47.50
   7   1  13   22.20   23.20
  -7  -1 -13    8.40    6.90
   7   2  13   47.60   28.40
  -7  -2 -13  101.79   18.80
   7   3  13  -16.50   19.80
  -7  -3 -13    8.10    7.10
   6   3 -14  154.08   61.39
   6   2 -14   54.59   44.30
   6   2 -14   45.80   42.80
   6   1 -14   93.89   43.10
   5   5 -14  -24.10   27.10
  -5  -4  14    9.40   13.20
   5   4 -14   57.19   34.90
   5   3 -14   20.20   34.60
   5   2 -14  129.89   48.20
   5   2 -14  -16.40   42.70
   5   1 -14   96.99   50.79
   5   1 -14  154.68   64.99
   5   0 -14  -33.30   42.70
   5  -1 -14   53.59   47.60
   5  -2 -14   71.09   54.19
   4   6 -14  432.36  101.09
  -4  -5  14   15.90   10.60
   4   5 -14   22.60   30.30
  -4  -4  14   92.19   22.30
   4   4 -14   59.29   40.10
  -4  -3  14   21.30   12.70
   4   3 -14   53.49   30.40
   4   3 -14   29.80   35.60
  -4  -2  14  624.64   47.50
   4   2 -14  457.85   97.59
   4   2 -14  394.96   91.69
  -4  -1  14   29.40   13.30
   4   1 -14   56.69   39.90
   4   1 -14   12.90   31.90
  -4   0  14    5.90   10.40
   4   0 -14   44.90   37.10
  -4   1  14  -10.80   11.40
   4  -1 -14  -14.40   31.40
  -4   2  14   -6.80   14.80
  -4   3  14   11.10   18.40
   4  -3 -14  -43.40   48.40
  -3  -6  14  135.19   25.90
   3   6 -14   55.99   46.20
  -3  -5  14   58.49   19.20
  -3  -4  14   20.80   13.00
   3   4 -14   14.20   31.40
  -3  -3  14   39.80   16.60
   3   3 -14   68.49   39.70
   3   3 -14   37.20   28.20
  -3  -2  14   79.39   19.10
   3   2 -14   23.10   30.90
   3   2 -14   25.40   26.60
   3   1 -14   13.30   29.60
   3   1 -14   40.50   31.20
   3   0 -14  -38.60   30.90
  -3   1  14  170.98   27.60
   3  -1 -14   35.90   39.00
  -3   2  14   80.49   20.00
   3  -2 -14   39.90   45.00
  -3   3  14   66.59   26.90
   3  -3 -14  -40.20   28.10
  -3   4  14  129.49   30.40
   3  -4 -14  -10.40   41.10
  -2  -6  14   23.30   15.10
   2   6 -14   -3.40   24.30
  -2  -5  14   38.00   17.10
   2   5 -14  -34.40   28.30
  -2  -4  14   44.70   16.10
   2   4 -14    9.80   35.80
  -2  -3  14   55.39   19.30
   2   3 -14   73.69   39.40
   2   3 -14    2.80   21.40
  -2  -2  14  464.75   46.70
   2   2 -14  412.86   95.79
  -2  -1  14  288.97   34.50
   2   1 -14  279.77   71.89
  -2   0  14  -15.80    8.30
   2   0 -14   11.70   28.70
  -2   1  14   87.19   22.60
   2  -1 -14  101.69   49.70
  -2   2  14  194.98   31.40
   2  -2 -14   99.99   55.49
  -2   3  14  209.98   36.30
   2  -3 -14  104.19   49.50
  -2   4  14   29.20   20.80
   2  -4 -14  -49.10   31.60
  -2   5  14   13.70   17.50
   2  -5 -14  -15.40   34.70
  -1  -6  14   94.79   25.40
  -1  -5  14  286.07   38.10
   1   5 -14  327.87   77.19
  -1  -4  14   59.19   19.30
   1   4 -14   59.09   32.30
  -1  -3  14  127.99   30.10
   1   3 -14   79.39   29.30
   1   3 -14   33.80   33.00
  -1  -2  14  142.59   28.40
   1   2 -14   83.79   39.80
   1   2 -14   79.29   37.30
  -1  -1  14  430.96   44.90
   1   1 -14  276.87   75.39
  -1   0  14   34.90   13.60
   1   0 -14   35.40   35.30
  -1   1  14  465.55   47.40
   1  -1 -14  321.77   84.19
   1  -2 -14   38.90   29.50
  -1   3  14   31.80   18.20
   1  -3 -14  -18.90   22.10
  -1   4  14   25.30   18.70
   1  -4 -14    3.30   28.10
  -1   5  14  465.65   53.89
   0  -5  14  104.59   24.50
   0   5 -14   78.49   13.40
   0   5 -14  106.39   42.00
   0  -4  14  145.09   30.30
   0   4 -14  155.18   49.70
   0   4 -14  148.79   15.80
   0  -3  14  174.38   33.50
   0   3 -14  158.48   14.90
   0   3 -14   73.79   31.70
   0  -2  14  -13.90    8.40
   0   2 -14  -14.80   30.70
   0   2 -14   -7.50   26.20
   0  -1  14  130.29   29.30
   0   1 -14   71.19   35.30
   0   0  14  291.77   38.40
   0   0 -14  228.58   65.79
   0   1  14    0.40    9.40
   0  -1 -14   18.00   18.20
   0   2  14  188.68   35.40
   0  -2 -14  128.69   49.70
   0   3  14   22.80   14.40
   0  -3 -14  -20.90   13.70
   0   4  14   33.30   19.70
   0  -4 -14    3.50   21.50
   0   5  14    5.80   16.00
   0  -5 -14  -32.90   35.30
   0  -6 -14   80.39   44.10
  -1   5 -14   88.19   52.09
  -1   5 -14  198.58   20.80
   1  -4  14   48.20   17.40
  -1   4 -14   54.79   42.40
  -1   4 -14   56.39   11.80
  -1   3 -14   41.00   33.70
  -1   3 -14   14.80    5.70
   1  -2  14   27.50   15.10
  -1   2 -14   14.10   26.90
  -1   2 -14   23.90    7.50
  -1   1 -14  414.06   30.50
  -1   1 -14  397.26   66.79
   1   0  14   12.10   11.60
  -1   0 -14  -25.60   15.70
  -1   0 -14   -4.50    8.80
   1   1  14   78.59   23.70
  -1  -1 -14   33.40    8.80
  -1  -1 -14   13.30   11.10
  -1  -1 -14    6.90   19.50
   1   2  14   -0.10   10.80
  -1  -2 -14   17.70   18.60
  -1  -2 -14   12.00    6.10
   1   3  14  114.79   26.40
  -1  -3 -14  103.59   38.20
  -1  -3 -14   88.59   12.20
   1   4  14   29.20   16.70
  -1  -4 -14   37.00   28.20
   1   5  14  369.96   56.49
  -1  -5 -14  269.77   22.10
  -1  -5 -14  295.87   72.29
   1   6  14   41.30   16.40
  -1  -6 -14   24.80   31.30
   2  -5  14   70.39   23.20
  -2   5 -14   83.79   42.90
  -2   5 -14   33.00   10.60
   2  -4  14   43.80   19.90
  -2   4 -14   40.90   10.60
   2  -3  14  133.09   29.50
  -2   3 -14  103.29   36.00
  -2   3 -14   84.29   15.20
   2  -2  14   -8.10   11.40
  -2   2 -14   27.30   19.90
  -2   2 -14   13.50    5.90
   2  -1  14  325.57   42.20
  -2   1 -14  280.57   25.60
  -2   1 -14  298.27   50.79
   2   0  14   18.40   13.00
  -2   0 -14   10.70    6.10
  -2   0 -14   -1.20   12.60
   2   1  14  176.58   35.00
  -2  -1 -14  138.89   39.80
  -2  -1 -14  164.98   19.40
   2   2  14  514.05   57.19
  -2  -2 -14  519.95   67.59
  -2  -2 -14  492.15   38.70
   2   3  14  497.85   58.49
  -2  -3 -14  601.74   78.19
  -2  -3 -14  495.95   40.10
   2   4  14   13.20   18.50
  -2  -4 -14   46.30   25.10
  -2  -4 -14   27.50   10.10
   2   5  14   14.30   18.60
  -2  -5 -14   31.10   10.40
  -2  -5 -14   40.60   23.30
   2   6  14  236.28   50.89
  -2  -6 -14  216.48   61.99
  -2  -6 -14  174.08   21.90
   3  -4  14  -12.60   11.80
  -3   4 -14    0.00    6.80
   3  -3  14  448.66   56.19
  -3   3 -14  419.56   35.30
   3  -2  14  -12.10   11.70
  -3   2 -14   -0.70    4.20
  -3   2 -14    5.60   19.10
   3  -1  14   21.60   14.20
  -3   1 -14   11.90   17.10
  -3   1 -14    7.00    5.80
   3   0  14   72.59   23.80
  -3   0 -14   39.70   12.10
  -3   0 -14   40.20   21.30
   3   1  14  418.66   53.59
  -3  -1 -14  445.86   36.50
  -3  -1 -14  507.75   77.79
   3   2  14  -19.00   11.90
  -3  -2 -14  -10.10    6.80
  -3  -2 -14   23.20    7.60
   3   3  14   -7.40    9.20
  -3  -3 -14   24.80   14.60
  -3  -3 -14   -4.40    6.20
   3   4  14    8.80   14.50
  -3  -4 -14   16.60   16.90
   3   5  14   46.80   20.30
  -3  -5 -14   11.70    8.80
  -3  -5 -14    6.30   15.70
  -3  -6 -14   22.90   20.20
  -3  -6 -14    1.90    9.40
   4  -3  14   13.50   15.50
  -4   3 -14    5.60    6.30
   4  -2  14   -4.20   16.10
  -4   2 -14   19.60    8.10
   4  -1  14   11.70   14.40
  -4   1 -14   15.90    6.70
   4   0  14   71.39   28.50
  -4   0 -14   58.49   14.50
   4   1  14    1.80   13.50
  -4  -1 -14   56.29   12.00
   4   2  14  335.87   58.69
  -4  -2 -14  365.56   32.60
   4   3  14  109.39   35.90
  -4  -3 -14   89.59   18.10
  -4  -3 -14  146.29   42.60
   4   4  14   36.30   23.90
  -4  -4 -14   23.40    9.50
  -4  -4 -14   -4.80   11.40
  -4  -5 -14    3.30    8.30
   4   6  14  322.87   60.69
  -4  -6 -14  395.46   37.40
  -4  -6 -14  490.05   72.39
   5  -2  14   -8.50   14.80
  -5   2 -14    7.80    6.50
   5  -1  14   41.60   21.10
  -5   1 -14   18.10    7.90
   5   0  14   61.99   29.60
  -5   0 -14   86.59   15.90
   5   1  14  395.26   65.69
  -5  -1 -14  393.86   34.60
   5   2  14   -4.30   12.60
  -5  -2 -14    8.10    6.10
   5   3  14    9.50   26.10
  -5  -3 -14   -5.00    4.60
   5   4  14  257.37   54.99
  -5  -4 -14  114.69   20.80
   5   5  14  -18.20   21.50
  -5  -5 -14   27.10   19.60
  -5  -5 -14    6.40    9.70
   6   0  14   -4.20   18.30
  -6   0 -14   19.40    9.70
   6   1  14   11.80   16.60
  -6  -1 -14   16.20    8.80
   6   2  14   30.30   23.00
  -6  -2 -14    3.80   10.00
   6   3  14    6.50   21.50
  -6  -3 -14    8.00   14.30
   6   4  14  108.79   37.90
  -6  -4 -14   65.29   16.40
   5   3 -15   51.89   38.40
   5   3 -15   60.79   54.29
   5   2 -15  -20.30   47.00
   5   2 -15   40.40   42.10
   5   1 -15   93.29   56.69
   5   0 -15   92.79   62.79
  -4  -4  15  -10.60   12.30
   4   4 -15  -27.60   24.80
  -4  -3  15  -10.20   11.60
   4   3 -15  -21.60   26.80
   4   3 -15   14.20   36.50
  -4  -2  15  125.39   23.20
   4   2 -15   35.20   42.20
   4   2 -15   63.89   42.50
   4   1 -15   44.60   47.10
   4   0 -15   23.10   43.40
   4  -1 -15  -12.70   39.90
   4  -2 -15   68.19   54.79
  -3  -5  15   19.90   16.30
   3   5 -15   54.09   44.20
  -3  -4  15  205.98   34.50
   3   4 -15  106.39   59.49
  -3  -3  15   16.60   12.40
   3   3 -15   43.00   33.40
   3   3 -15   35.50   33.80
  -3  -2  15   25.40   14.40
   3   2 -15   57.39   37.40
   3   2 -15   33.40   27.10
  -3  -1  15   -4.20   11.10
   3   1 -15  -31.30   27.80
  -3   0  15  574.64   50.29
  -3   1  15   10.90   12.70
   3  -1 -15    5.30   36.00
  -3   2  15   46.80   19.80
   3  -2 -15   29.70   43.10
  -3   3  15  -34.80   16.10
   3  -3 -15  -35.10   44.70
  -2  -5  15  271.67   43.40
   2   5 -15  119.39   51.39
  -2  -4  15  293.97   47.30
   2   4 -15  143.29   55.79
  -2  -3  15    5.30   13.20
   2   3 -15   10.20   23.50
   2   3 -15    8.90   45.00
  -2  -2  15  152.48   28.80
   2   2 -15   98.09   47.70
   2   2 -15   51.09   37.50
  -2  -1  15   49.30   18.30
   2   1 -15  -36.60   28.50
   2   0 -15   73.49   45.10
  -2   1  15   12.10   12.80
   2  -1 -15  -45.80   26.70
  -2   2  15   36.40   17.70
   2  -2 -15  -31.50   23.90
  -2   3  15  222.88   38.90
   2  -3 -15   47.30   47.30
  -2   4  15    4.60   14.20
   2  -4 -15   85.89   39.30
  -1  -5  15  -32.60   11.70
   1   5 -15  -10.70   33.40
  -1  -4  15   16.70   12.90
   1   4 -15  -37.10   19.80
  -1  -3  15    9.00   13.10
   1   3 -15  -39.20   23.30
   1   3 -15   29.30   33.70
  -1  -2  15   37.00   17.60
   1   2 -15   67.29   37.40
   1   2 -15   51.29   42.40
  -1  -1  15   12.20   10.60
   1   1 -15   10.50   32.20
  -1   0  15  164.08   33.80
   1   0 -15  102.99   57.79
  -1   1  15   36.30   15.40
   1  -1 -15   17.50   28.50
  -1   2  15   76.89   22.80
   1  -2 -15   52.39   34.10
   1  -3 -15  112.49   53.69
  -1   4  15  219.68   41.00
   1  -4 -15  142.69   55.79
   0   5 -15   57.79   35.30
   0  -4  15  123.79   31.70
   0   4 -15   73.19   42.60
   0  -3  15  293.27   45.90
   0   3 -15  172.08   71.49
   0  -2  15  237.38   39.60
   0   2 -15  177.68   54.29
   0   1 -15   -3.70   30.70
   0   0  15  184.08   35.40
   0   0 -15  175.58   53.39
   0   1  15  162.98   33.20
   0  -1 -15  115.99   43.40
   0  -2 -15  100.39   43.20
   0   3  15  143.09   33.10
   0  -3 -15  128.19   48.00
   0   4  15  113.19   32.60
   0  -4 -15   72.29   35.90
   0   5  15   11.10   16.40
   0  -5 -15  -12.80   25.70
   1  -4  15  373.36   49.40
  -1   4 -15  373.06   29.50
  -1   4 -15  362.16   89.59
   1  -3  15  -12.00   10.90
  -1   3 -15    4.20    6.60
   1  -2  15  204.78   40.10
  -1   2 -15  171.38   17.70
  -1   2 -15  179.58   52.09
   1  -1  15   19.50   16.90
  -1   1 -15   32.00    9.20
  -1   1 -15   32.80   25.10
   1   0  15   47.10   18.10
  -1   0 -15   33.20   10.10
  -1   0 -15   19.50   27.10
   1   1  15  118.09   28.00
  -1  -1 -15   57.29   10.00
  -1  -1 -15   67.79   27.50
   1   2  15  474.85   54.49
  -1  -2 -15  496.35   74.59
   1   3  15    4.10   14.80
  -1  -3 -15    2.90   20.40
   1   4  15   32.00   21.60
  -1  -4 -15   94.09   39.60
   1   5  15   57.29   23.90
  -1  -5 -15   68.49   37.20
   2  -4  15    1.90   12.70
  -2   4 -15    6.50    7.60
   2  -3  15  134.29   30.20
  -2   3 -15  101.59   16.30
   2  -2  15   22.40   16.70
  -2   2 -15  -14.20   22.10
  -2   2 -15    3.70    5.20
   2  -1  15  125.79   31.20
  -2   1 -15  155.98   42.60
  -2   1 -15  106.79   16.60
   2   0  15   12.80   16.20
  -2   0 -15   37.90   26.50
  -2   0 -15   65.49   12.80
  -2  -1 -15  199.28   52.39
  -2  -1 -15  229.88   22.70
   2   2  15   30.50   18.60
  -2  -2 -15    1.80   16.60
  -2  -2 -15   27.90    9.20
   2   3  15   -9.40   15.80
  -2  -3 -15    8.70    7.60
  -2  -3 -15    5.20   17.40
   2   4  15  -12.20   13.20
  -2  -4 -15   20.20   21.70
  -2  -4 -15   -2.20    7.20
   2   5  15  -15.70   15.40
  -2  -5 -15  -13.50    6.80
  -2  -5 -15   24.20   19.50
   3  -3  15   30.10   16.70
  -3   2 -15   23.00    8.80
  -3   2 -15   21.20   25.40
   3  -1  15  -11.50   14.90
  -3   1 -15   32.00   22.10
  -3   1 -15    6.00    7.60
   3   0  15    0.60   12.90
  -3   0 -15   -5.30    4.80
  -3   0 -15   -8.30   17.00
   3   1  15   79.59   28.70
  -3  -1 -15  131.69   38.90
   3   2  15  116.39   32.20
  -3  -2 -15   73.09   21.70
  -3  -2 -15   96.29   33.60
   3   3  15   58.39   23.30
  -3  -3 -15   22.50   19.90
   3   4  15   76.49   28.80
  -3  -4 -15   74.59   16.10
  -3  -4 -15   88.29   34.00
   3   5  15  193.18   40.80
  -3  -5 -15  244.48   60.09
  -3  -5 -15  209.98   25.30
   4  -2  15   53.69   19.90
  -4   2 -15   27.60    9.20
   4  -1  15  256.77   49.00
  -4   1 -15  356.36   54.69
  -4   1 -15  251.77   26.40
  -4   0 -15   44.70   21.60
  -4   0 -15   47.00   12.10
   4   1  15  -19.40   12.00
  -4  -1 -15   29.70   21.30
  -4  -1 -15   15.30    6.80
   4   2  15    8.60   21.10
  -4  -2 -15   23.90   17.40
  -4  -2 -15   26.30    9.90
   4   3  15  377.26   71.19
  -4  -3 -15  420.96   60.39
  -4  -3 -15  346.37   33.30
   4   4  15    9.00   20.50
  -4  -4 -15   35.40   13.60
   4   5  15   35.70   26.20
  -4  -5 -15   14.40   20.50
  -4  -5 -15    7.00    9.20
   5   0  15    0.80   15.90
  -5   0 -15   21.70    8.20
   5   1  15   12.50   17.00
  -5  -1 -15   29.60   10.10
   5   2  15  -10.30   19.00
  -5  -2 -15   12.10    9.00
   5   3  15    7.30   21.60
  -5  -3 -15   12.90    7.70
   5   4  15  130.29   35.70
  -5  -4 -15  107.29   21.10
  -5  -4 -15  156.18   48.60
   4   2 -16   12.70   39.40
   4   2 -16   75.29   54.99
   4   1 -16   31.30   61.09
   4   0 -16   13.50   54.39
  -3  -3  16  379.96   41.60
   3   3 -16  297.97   89.99
  -3  -2  16   -7.90   10.10
   3   2 -16  -50.49   23.30
   3   2 -16  -30.30   39.10
  -3  -1  16    4.60   14.30
  -3   0  16   -1.30   14.20
   3   0 -16  -58.89   33.50
  -3   1  16   18.10   16.20
   3  -1 -16   36.80   41.10
  -2  -4  16    1.10   15.40
   2   4 -16   56.99   34.20
  -2  -3  16   24.00   15.90
   2   3 -16  -32.40   26.50
  -2  -2  16   49.70   18.00
   2   2 -16    5.20   31.90
   2   2 -16  -16.80   39.30
  -2  -1  16   29.80   18.30
  -2   0  16   12.60   17.10
   2   0 -16   51.79   43.00
  -2   1  16   30.60   18.80
   2  -1 -16   13.90   44.90
  -2   2  16  137.59   30.80
   2  -2 -16  112.69   63.29
  -1  -4  16    2.10   15.90
   1   4 -16   31.00   28.90
  -1  -3  16  486.75   54.39
   1   3 -16  601.74  126.09
  -1  -2  16   56.99   19.20
   1   2 -16   32.00   39.50
   1   1 -16   -2.80   35.90
  -1   0  16  158.18   31.60
   1   0 -16   52.19   52.89
  -1   1  16  143.29   30.50
   1  -1 -16  124.09   61.59
  -1   2  16   84.59   24.60
   1  -2 -16  126.99   49.40
  -1   3  16    6.00   18.50
   0  -4  16    8.50   18.60
   0   4 -16  -12.00   22.30
   0  -3  16   36.40   20.10
   0  -2  16   38.40   18.70
   0   2 -16   15.90   41.40
   0  -1  16   87.59   23.00
   0   1 -16  -12.00   34.90
   0   0  16  190.48   40.40
   0   0 -16  255.07   90.59
   0   1  16  125.49   27.80
   0  -1 -16   41.40   35.60
   0   2  16    3.70   20.30
   0  -2 -16   15.90   27.10
   0  -3 -16   24.40   21.10
   0   4  16   66.39   29.30
   0  -4 -16  146.59   54.69
   1  -3  16  -19.10   11.30
  -1   2 -16   19.60   10.40
  -1   2 -16   12.90   40.60
   1  -1  16  231.88   47.50
  -1   1 -16  116.99   48.60
   1   0  16   32.60   20.00
   1   1  16  103.59   26.80
  -1  -1 -16  122.79   45.90
   1   2  16    3.00   17.80
  -1  -2 -16   51.19   32.90
   1   3  16    6.00   16.70
  -1  -3 -16   16.50   21.30
   1   4  16   -2.60   19.50
  -1  -4 -16   52.79   29.80
   2  -2  16  278.17   55.79
  -2   2 -16  189.18   24.00
   2  -1  16   76.19   23.90
  -2   1 -16   66.99   36.40
  -2   1 -16   46.20   11.70
   2   0  16  186.78   40.20
  -2   0 -16  122.49   40.60
  -2   0 -16  129.69   17.20
   2   1  16    8.90   14.70
  -2  -1 -16   17.10   17.20
  -2  -1 -16    3.10    7.90
   2   2  16   79.49   25.20
  -2  -2 -16   77.49   32.20
  -2  -2 -16   62.59   13.60
   2   3  16   -5.50   16.90
  -2  -3 -16   23.10   21.10
  -2  -3 -16   16.00    9.80
   2   4  16  315.47   56.39
  -2  -4 -16  316.57   75.19
   3  -1  16  157.28   36.80
  -3   1 -16  187.18   21.20
  -3   1 -16  182.48   48.60
   3   0  16   51.79   21.50
  -3   0 -16   20.30   10.40
  -3   0 -16   -5.00   18.80
   3   1  16    3.20   18.40
  -3  -1 -16   17.50    9.70
  -3  -1 -16   36.80   25.00
   3   2  16  104.19   31.90
  -3  -2 -16  105.09   18.20
  -3  -2 -16   88.29   31.90
  -3  -3 -16   82.09   32.10
  -3  -3 -16   71.59   16.80
   3   4  16  -13.90   15.50
  -3  -4 -16   12.20   15.50
  -3  -4 -16    4.80    8.30
   4   0  16   34.70   21.20
  -4   0 -16   46.20   12.50
  -4   0 -16   52.79   30.10
   4   1  16   -8.00   14.10
  -4  -1 -16    4.70   21.00
  -4  -1 -16  -11.90    6.50
   4   2  16   36.10   24.10
  -4  -2 -16   -4.50   18.20
  -4  -2 -16    7.70    8.00
   4   3  16   26.80   20.80
  -4  -3 -16   11.00   24.30
  -4  -3 -16   -8.90    7.10
  -2  -1  17  467.95   51.79
   2   0 -17   76.99   48.50
  -1  -2  17   21.00   18.70
   1   1 -17   74.29   87.09
  -1   0  17   29.90   18.40
   1   0 -17  -12.00   43.90
  -1   1  17   41.40   15.80
   0  -2  17   17.60   15.10
   0  -1  17  319.97   43.20
   0   1 -17  161.08   66.19
   0   0  17    7.30   18.00
   0   0 -17   -2.10   36.60
   0   1  17    6.00   13.90
   0  -1 -17    6.90   29.40
   0   2  17   11.00   16.50
   0  -2 -17  -11.20   27.00
   1  -1  17  246.68   43.40
  -1   1 -17  175.78   61.99
   1   0  17   -6.30   15.40
  -1   0 -17   36.70   32.10
   1   1  17  214.78   43.00
  -1  -1 -17  134.19   45.10
   1   2  17    3.50   19.60
  -1  -2 -17  -38.30   21.70
   2   0  17   13.30   17.20
  -2   0 -17   50.59   36.70
   2   1  17  235.28   48.20
  -2  -1 -17  133.69   48.50
  -2  -2 -17   35.30   23.20
   0   0   0    0.00    0.00

_computing_structure_solution     'SHELXT 2014/5 (Sheldrick, 2014)'
;
_shelx_hkl_checksum              9109
loop_
_space_group_symop_operation_xyz
'x, y, z'
'-x, -y, -z'
loop_
_atom_site_label
_atom_site_type_symbol
_atom_site_fract_x
_atom_site_fract_y
_atom_site_fract_z
_atom_site_U_iso_or_equiv
_atom_site_adp_type
_atom_site_occupancy
_atom_site_site_symmetry_order
_atom_site_calc_flag
_atom_site_refinement_flags_posn
_atom_site_refinement_flags_adp
_atom_site_refinement_flags_occupancy
_atom_site_disorder_assembly
_atom_site_disorder_group
Pb01 Pb 0.10800(9) 0.01091(9) 0.86786(5) 0.03126(18) Uani 1 1 d . . . . .
B1 B 0.222(2) 0.261(3) 0.7492(14) 0.027(4) Uani 1 1 d . . . . .
O1 O 0.0404(14) 0.2549(14) 0.7494(9) 0.027(3) Uani 1 1 d . . . . .
Pb02 Pb 0.54576(9) -0.01785(9) 0.67655(6) 0.02990(17) Uani 1 1 d . . . . .
Cl2 Cl 0.0166(6) -0.1504(6) 0.6843(3) 0.0342(10) Uani 1 1 d . . . . .
Pb03 Pb 0.43853(9) 0.28933(10) 0.92540(5) 0.03253(18) Uani 1 1 d . . . . .
Cl3 Cl 0.7203(5) -0.0665(6) 0.9354(3) 0.0314(10) Uani 1 1 d . . . . .
Pb04 Pb 0.35836(10) 0.51377(9) 0.64889(5) 0.03239(18) Uani 1 1 d . . . . .
Pb05 Pb 0.03790(9) 0.20046(9) 0.57286(5) 0.03250(18) Uani 1 1 d . . . . .
Pb06 Pb -0.09454(9) 0.54752(9) 0.80751(6) 0.03393(18) Uani 1 1 d . . . . .
Cl07 Cl 0.4488(6) 0.7011(6) 0.8165(4) 0.0355(10) Uani 1 1 d . . . . .
Cl09 Cl 0.6509(6) 0.1317(6) 0.4905(3) 0.0316(10) Uani 1 1 d . . . . .
Cl0A Cl 0.6572(6) 0.2670(6) 0.7466(3) 0.0323(10) Uani 1 1 d . . . . .
Cl0B Cl -0.1955(7) 0.5665(6) 0.5804(4) 0.0380(11) Uani 1 1 d . . . . .
Cl0D Cl -0.1367(7) 0.3583(6) 0.9848(4) 0.0434(12) Uani 1 1 d . . . . .
O00E O 0.2930(14) 0.2272(13) 0.6444(7) 0.018(2) Uani 1 1 d . . . . .
O00F O 0.2185(14) 0.4358(14) 0.7854(8) 0.024(3) Uani 1 1 d . . . . .
O00G O 0.3354(14) 0.1217(14) 0.8192(8) 0.022(2) Uani 1 1 d . . . . .
loop_
_atom_site_aniso_label
_atom_site_aniso_U_11
_atom_site_aniso_U_22
_atom_site_aniso_U_33
_atom_site_aniso_U_23
_atom_site_aniso_U_13
_atom_site_aniso_U_12
Pb01 0.0379(4) 0.0343(4) 0.0276(4) 0.0015(3) 0.0014(3) -0.0202(3)
B1 0.022(9) 0.047(13) 0.015(10) -0.011(8) -0.004(8) -0.015(9)
O1 0.020(6) 0.021(6) 0.039(7) 0.012(5) -0.006(6) -0.004(5)
Pb02 0.0266(3) 0.0257(3) 0.0360(4) -0.0016(3) 0.0020(3) -0.0070(3)
Cl2 0.035(2) 0.031(2) 0.035(3) 0.0012(19) -0.001(2) -0.0099(19)
Pb03 0.0333(4) 0.0386(4) 0.0278(4) -0.0074(3) -0.0032(3) -0.0149(3)
Cl3 0.028(2) 0.036(2) 0.029(2) 0.0013(19) -0.0035(19) -0.0094(19)
Pb04 0.0389(4) 0.0327(4) 0.0296(4) 0.0060(3) -0.0018(3) -0.0176(3)
Pb05 0.0348(4) 0.0320(4) 0.0307(4) -0.0033(3) -0.0104(3) -0.0111(3)
Pb06 0.0310(4) 0.0299(4) 0.0351(4) -0.0001(3) 0.0054(3) -0.0030(3)
Cl07 0.038(2) 0.030(2) 0.043(3) -0.0028(19) -0.005(2) -0.017(2)
Cl09 0.034(2) 0.033(2) 0.031(2) -0.0010(18) 0.001(2) -0.0154(19)
Cl0A 0.027(2) 0.035(2) 0.039(3) 0.0003(19) -0.005(2) -0.0146(18)
Cl0B 0.049(3) 0.029(2) 0.033(3) 0.0021(19) -0.002(2) -0.008(2)
Cl0D 0.054(3) 0.034(3) 0.035(3) 0.003(2) 0.007(2) -0.006(2)
O00E 0.026(6) 0.019(5) 0.011(5) -0.009(4) 0.005(5) -0.009(5)
O00F 0.034(6) 0.023(6) 0.023(6) 0.002(5) -0.001(5) -0.020(5)
O00G 0.028(6) 0.033(6) 0.009(5) -0.001(5) 0.005(5) -0.015(5)
loop_
_atom_type_symbol
_atom_type_description
_atom_type_scat_dispersion_real
_atom_type_scat_dispersion_imag
_atom_type_scat_source
B B 0.0013 0.0007 'International Tables Vol C Tables 4.2.6.8 and 6.1.1.4'
Cl Cl 0.1484 0.1585 'International Tables Vol C Tables 4.2.6.8 and 6.1.1.4'
O O 0.0106 0.0060 'International Tables Vol C Tables 4.2.6.8 and 6.1.1.4'
Pb Pb -3.3944 10.1111 'International Tables Vol C Tables 4.2.6.8 and 6.1.1.4'
loop_
_geom_angle_atom_site_label_1
_geom_angle_atom_site_label_2
_geom_angle_atom_site_label_3
_geom_angle
_geom_angle_site_symmetry_1
_geom_angle_site_symmetry_3
_geom_angle_publ_flag
O00G Pb01 O1 60.8(4) . . ?
O00G Pb01 B1 30.6(4) . . ?
O1 Pb01 B1 30.1(4) . . ?
O00G Pb01 Cl2 106.8(3) . . ?
O1 Pb01 Cl2 79.3(3) . . ?
B1 Pb01 Cl2 93.2(4) . . ?
O00G Pb01 Cl3 73.9(3) . 2_657 ?
O1 Pb01 Cl3 114.3(3) . 2_657 ?
B1 Pb01 Cl3 94.8(3) . 2_657 ?
Cl2 Pb01 Cl3 163.00(12) . 2_657 ?
O00G Pb01 Cl07 70.5(3) . 1_545 ?
O1 Pb01 Cl07 114.2(3) . 1_545 ?
B1 Pb01 Cl07 92.6(4) . 1_545 ?
Cl2 Pb01 Cl07 75.33(12) . 1_545 ?
Cl3 Pb01 Cl07 89.31(12) 2_657 1_545 ?
O1 B1 O00E 108.2(13) . . ?
O1 B1 O00F 109.9(14) . . ?
O00E B1 O00F 111.2(14) . . ?
O1 B1 O00G 109.3(14) . . ?
O00E B1 O00G 109.4(14) . . ?
O00F B1 O00G 108.8(12) . . ?
O1 B1 Pb06 54.8(8) . . ?
O00E B1 Pb06 125.1(11) . . ?
O00F B1 Pb06 55.1(8) . . ?
O00G B1 Pb06 125.5(10) . . ?
O1 B1 Pb05 54.8(8) . . ?
O00E B1 Pb05 53.5(7) . . ?
O00F B1 Pb05 125.7(11) . . ?
O00G B1 Pb05 125.5(11) . . ?
Pb06 B1 Pb05 89.6(5) . . ?
O1 B1 Pb01 55.4(8) . . ?
O00E B1 Pb01 123.5(11) . . ?
O00F B1 Pb01 125.2(11) . . ?
O00G B1 Pb01 53.9(7) . . ?
Pb06 B1 Pb01 91.0(5) . . ?
Pb05 B1 Pb01 90.5(5) . . ?
O1 B1 Pb04 129.3(11) . . ?
O00E B1 Pb04 60.3(8) . . ?
O00F B1 Pb04 51.1(7) . . ?
O00G B1 Pb04 121.2(10) . . ?
Pb06 B1 Pb04 89.8(6) . . ?
Pb05 B1 Pb04 95.5(5) . . ?
Pb01 B1 Pb04 174.0(7) . . ?
B1 O1 Pb06 94.7(10) . . ?
B1 O1 Pb05 94.7(9) . . ?
Pb06 O1 Pb05 118.5(4) . . ?
B1 O1 Pb01 94.5(9) . . ?
Pb06 O1 Pb01 120.2(5) . . ?
Pb05 O1 Pb01 119.4(5) . . ?
O00E Pb02 O00G 60.0(3) . . ?
O00E Pb02 Cl0A 78.5(3) . . ?
O00G Pb02 Cl0A 75.1(3) . . ?
O00E Pb02 Cl09 78.1(3) . . ?
O00G Pb02 Cl09 132.1(3) . . ?
Cl0A Pb02 Cl09 74.67(13) . . ?
O00E Pb02 Cl09 74.7(3) . 2_656 ?
O00G Pb02 Cl09 109.9(3) . 2_656 ?
Cl0A Pb02 Cl09 144.25(12) . 2_656 ?
Cl09 Pb02 Cl09 77.02(13) . 2_656 ?
O00G Pb03 O00F 59.8(4) . . ?
O00G Pb03 Cl0A 78.4(3) . . ?
O00F Pb03 Cl0A 75.7(3) . . ?
O00G Pb03 Cl3 76.4(3) . . ?
O00F Pb03 Cl3 130.7(3) . . ?
Cl0A Pb03 Cl3 74.35(12) . . ?
Pb03 Cl3 Pb01 97.12(14) . 2_657 ?
O00F Pb04 O00E 60.4(4) . . ?
O00F Pb04 Cl0A 80.3(3) . . ?
O00E Pb04 Cl0A 76.4(2) . . ?
O00F Pb04 Cl07 77.5(3) . . ?
O00E Pb04 Cl07 131.5(2) . . ?
Cl0A Pb04 Cl07 73.76(13) . . ?
O00F Pb04 B1 30.0(4) . . ?
O00E Pb04 B1 30.4(4) . . ?
Cl0A Pb04 B1 74.9(4) . . ?
Cl07 Pb04 B1 104.1(4) . . ?
O00E Pb05 O1 61.2(4) . . ?
O00E Pb05 B1 30.7(4) . . ?
O1 Pb05 B1 30.5(4) . . ?
O00E Pb05 Cl0B 99.8(3) . . ?
O1 Pb05 Cl0B 79.4(3) . . ?
B1 Pb05 Cl0B 89.1(4) . . ?
O00E Pb05 Cl09 73.6(3) . 2_656 ?
O1 Pb05 Cl09 111.9(3) . 2_656 ?
B1 Pb05 Cl09 93.5(4) . 2_656 ?
Cl0B Pb05 Cl09 160.04(13) . 2_656 ?
O1 Pb06 O00F 61.3(4) . . ?
O1 Pb06 Cl0D 80.2(3) . . ?
O00F Pb06 Cl0D 101.4(3) . . ?
O1 Pb06 B1 30.5(4) . . ?
O00F Pb06 B1 30.8(4) . . ?
Cl0D Pb06 B1 91.2(4) . . ?
O1 Pb06 Cl0B 75.8(3) . . ?
O00F Pb06 Cl0B 97.4(3) . . ?
Cl0D Pb06 Cl0B 137.24(15) . . ?
B1 Pb06 Cl0B 85.7(4) . . ?
Pb04 Cl07 Pb01 106.27(14) . 1_565 ?
Pb02 Cl09 Pb02 102.98(13) . 2_656 ?
Pb02 Cl09 Pb05 97.35(12) . 2_656 ?
Pb02 Cl09 Pb05 83.56(12) 2_656 2_656 ?
Pb04 Cl0A Pb03 88.50(13) . . ?
Pb04 Cl0A Pb02 89.64(12) . . ?
Pb03 Cl0A Pb02 88.18(12) . . ?
Pb05 Cl0B Pb06 85.45(11) . . ?
B1 O00E Pb05 95.9(9) . . ?
B1 O00E Pb02 99.2(9) . . ?
Pb05 O00E Pb02 121.9(4) . . ?
B1 O00E Pb04 89.3(9) . . ?
Pb05 O00E Pb04 123.9(4) . . ?
Pb02 O00E Pb04 112.1(4) . . ?
B1 O00F Pb04 98.8(9) . . ?
B1 O00F Pb06 94.1(9) . . ?
Pb04 O00F Pb06 122.6(4) . . ?
B1 O00F Pb03 90.8(8) . . ?
Pb04 O00F Pb03 111.2(4) . . ?
Pb06 O00F Pb03 124.4(4) . . ?
B1 O00G Pb03 100.5(9) . . ?
B1 O00G Pb01 95.5(9) . . ?
Pb03 O00G Pb01 122.7(4) . . ?
B1 O00G Pb02 91.3(8) . . ?
Pb03 O00G Pb02 113.6(4) . . ?
Pb01 O00G Pb02 120.7(5) . . ?
loop_
_geom_bond_atom_site_label_1
_geom_bond_atom_site_label_2
_geom_bond_distance
_geom_bond_site_symmetry_2
_geom_bond_publ_flag
Pb01 O00G 2.367(10) . ?
Pb01 O1 2.407(10) . ?
Pb01 B1 2.92(2) . ?
Pb01 Cl2 2.957(5) . ?
Pb01 Cl3 3.038(4) 2_657 ?
Pb01 Cl07 3.075(5) 1_545 ?
B1 O1 1.47(2) . ?
B1 O00E 1.48(2) . ?
B1 O00F 1.48(2) . ?
B1 O00G 1.49(2) . ?
B1 Pb06 2.88(2) . ?
B1 Pb05 2.882(17) . ?
B1 Pb04 2.92(2) . ?
O1 Pb06 2.361(12) . ?
O1 Pb05 2.362(12) . ?
Pb02 O00E 2.328(10) . ?
Pb02 O00G 2.509(11) . ?
Pb02 Cl0A 2.889(4) . ?
Pb02 Cl09 2.956(4) . ?
Pb02 Cl09 3.030(5) 2_656 ?
Pb03 O00G 2.292(11) . ?
Pb03 O00F 2.537(10) . ?
Pb03 Cl0A 2.888(5) . ?
Pb03 Cl3 2.979(4) . ?
Pb04 O00F 2.301(10) . ?
Pb04 O00E 2.536(10) . ?
Pb04 Cl0A 2.836(4) . ?
Pb04 Cl07 2.908(5) . ?
Pb05 O00E 2.328(10) . ?
Pb05 Cl0B 2.901(5) . ?
Pb05 Cl09 3.080(5) 2_656 ?
Pb06 O00F 2.370(11) . ?
Pb06 Cl0D 2.850(5) . ?
Pb06 Cl0B 3.080(5) . ?
