#------------------------------------------------------------------------------
#$Date: 2022-10-15 00:59:02 +0300 (Sat, 15 Oct 2022) $
#$Revision: 278592 $
#$URL: file:///home/coder/svn-repositories/cod/cif/7/13/08/7130869.cif $
#------------------------------------------------------------------------------
#
# This file is available in the Crystallography Open Database (COD),
# http://www.crystallography.net/
#
# All data on this site have been placed in the public domain by the
# contributors.
#
data_7130869
loop_
_publ_author_name
'Chen, Yi-Gang'
'Jiang, Xingxing'
'Yang, Yuanyu'
'Dai, Zhe'
'Lin, Zheshuai'
'Zhang, Xian-Ming'
_publ_section_title
;
 PbBe2B2O6: An Excellent Ultraviolet Nonlinear-Optical Crystal with
 Unprecedented \p-\p Interacting BeBO5 Group
;
_journal_name_full               'Chemical Communications'
_journal_paper_doi               10.1039/D2CC04631H
_journal_year                    2022
_chemical_formula_moiety         '0.5(B4 Be4 O12 Pb2)'
_chemical_formula_sum            'B2 Be2 O6 Pb'
_chemical_formula_weight         342.83
_space_group_crystal_system      orthorhombic
_space_group_IT_number           31
_space_group_name_Hall           'P 2ac -2'
_space_group_name_H-M_alt        'P m n 21'
_audit_creation_date             2022-10-08
_audit_creation_method
;
Olex2 1.2
(compiled 2018.05.29 svn.r3508 for OlexSys, GUI svn.r5506)
;
_audit_update_record
;
2022-10-10 deposited with the CCDC.	2022-10-13 downloaded from the CCDC.
;
_cell_angle_alpha                90
_cell_angle_beta                 90
_cell_angle_gamma                90
_cell_formula_units_Z            2
_cell_length_a                   10.737(2)
_cell_length_b                   4.7501(11)
_cell_length_c                   4.5368(11)
_cell_measurement_reflns_used    6635
_cell_measurement_temperature    293(2)
_cell_measurement_theta_max      30.45
_cell_measurement_theta_min      3.80
_cell_volume                     231.39(9)
_computing_cell_refinement       'SAINT v8.37A (Bruker, 2015)'
_computing_data_collection       'SAINT v8.37A (Bruker, 2015)'
_computing_data_reduction        'SAINT v8.37A (Bruker, 2015)'
_computing_molecular_graphics    'Olex2 (Dolomanov et al., 2009)'
_computing_publication_material  'Olex2 (Dolomanov et al., 2009)'
_computing_structure_refinement  'ShelXL (Sheldrick, 2015)'
_diffrn_ambient_temperature      293(2)
_diffrn_measured_fraction_theta_full 0.984
_diffrn_measured_fraction_theta_max 0.990
_diffrn_measurement_device_type  'CCD area detector'
_diffrn_measurement_method       'phi and omega scans'
_diffrn_radiation_monochromator  graphite
_diffrn_radiation_type           MoK\a
_diffrn_radiation_wavelength     0.71073
_diffrn_reflns_av_R_equivalents  0.0478
_diffrn_reflns_av_unetI/netI     0.0252
_diffrn_reflns_Laue_measured_fraction_full 0.984
_diffrn_reflns_Laue_measured_fraction_max 0.990
_diffrn_reflns_limit_h_max       15
_diffrn_reflns_limit_h_min       -15
_diffrn_reflns_limit_k_max       6
_diffrn_reflns_limit_k_min       -6
_diffrn_reflns_limit_l_max       6
_diffrn_reflns_limit_l_min       -6
_diffrn_reflns_number            6469
_diffrn_reflns_point_group_measured_fraction_full 0.986
_diffrn_reflns_point_group_measured_fraction_max 0.992
_diffrn_reflns_theta_full        25.242
_diffrn_reflns_theta_max         30.442
_diffrn_reflns_theta_min         3.795
_exptl_absorpt_coefficient_mu    36.403
_exptl_absorpt_correction_T_max  0.1701
_exptl_absorpt_correction_T_min  0.0379
_exptl_absorpt_correction_type   'multi-scan and numerical'
_exptl_absorpt_process_details
;
SADABS-2016/2 (Bruker,2016/2) was used for empirical absorption correction (multi-scan).
wR2(int) was 0.1628 before and 0.0639 after correction.
The Ratio of minimum to maximum transmission is 0.2228.
The \l/2 correction factor is Not present.
;
_exptl_crystal_colour            colourless
_exptl_crystal_density_diffrn    4.921
_exptl_crystal_density_method    'not measured'
_exptl_crystal_description       block
_exptl_crystal_F_000             296
_exptl_crystal_size_max          0.21
_exptl_crystal_size_mid          0.13
_exptl_crystal_size_min          0.09
_refine_diff_density_max         1.437
_refine_diff_density_min         -1.581
_refine_diff_density_rms         0.229
_refine_ls_abs_structure_details
;
 Refined as an inversion twin.
;
_refine_ls_abs_structure_Flack   0.46(3)
_refine_ls_extinction_coef       0.065(4)
_refine_ls_extinction_expression Fc^*^=kFc[1+0.001xFc^2^\l^3^/sin(2\q)]^-1/4^
_refine_ls_extinction_method     'SHELXL-2014/7 (Sheldrick 2014'
_refine_ls_goodness_of_fit_ref   1.117
_refine_ls_hydrogen_treatment    undef
_refine_ls_matrix_type           full
_refine_ls_number_parameters     54
_refine_ls_number_reflns         730
_refine_ls_number_restraints     13
_refine_ls_restrained_S_all      1.147
_refine_ls_R_factor_all          0.0173
_refine_ls_R_factor_gt           0.0173
_refine_ls_shift/su_max          0.001
_refine_ls_shift/su_mean         0.000
_refine_ls_structure_factor_coef Fsqd
_refine_ls_weighting_details
'w=1/[\s^2^(Fo^2^)+(0.0182P)^2^+1.0296P] where P=(Fo^2^+2Fc^2^)/3'
_refine_ls_weighting_scheme      calc
_refine_ls_wR_factor_gt          0.0425
_refine_ls_wR_factor_ref         0.0425
_reflns_Friedel_coverage         0.800
_reflns_Friedel_fraction_full    0.989
_reflns_Friedel_fraction_max     0.994
_reflns_number_gt                730
_reflns_number_total             730
_reflns_threshold_expression     'I > 2\s(I)'
_cod_data_source_file            d2cc04631h2.cif
_cod_data_source_block           pbbe2b2o6
_cod_database_code               7130869
_shelx_shelxl_version_number     2014/7
_shelx_space_group_comment
;
The symmetry employed for this shelxl refinement is uniquely defined
by the following loop, which should always be used as a source of
symmetry information in preference to the above space-group names.
They are only intended as comments.
;
_exptl_absorpt_special_details
; 
SADABS-2016/2 - Bruker AXS area detector scaling and face absorption correction (numerical). 
Reference: Krause, L., Herbst-Irmer, R., Sheldrick G.M. & Stalke D.,
J. Appl. Cryst. 48 (2015) 3-10.
Mean and maximum errors in direction cosine check function =   0.000   0.000.
The mean error should not exceed 0.005, and is usually caused by matrix 
changes during data processing.
;
_olex2_refinement_description
;
1. Twinned data refinement
 Scales: 0.54(3)
 0.46(3)
2. Uiso/Uaniso restraints and constraints
Uanis(O1) \\sim Ueq, Uanis(O3) \\sim Ueq: with sigma of 0.01 and sigma for
terminal atoms of 0.02
;
_shelx_res_file
;
    pbbe2b2o6.res created by SHELXL-2014/7

TITL PbBe2B2O6 in Pmn2(1)
REM reset to Pmn21 #31
CELL 0.71073 10.737 4.7501 4.5368 90 90 90
ZERR 2 0.0024 0.0011 0.0011 0 0 0
LATT -1
SYMM 0.5-X,-Y,0.5+Z
SYMM -X,+Y,+Z
SYMM 0.5+X,-Y,0.5+Z
SFAC B Be O Pb
UNIT 4 4 12 2
ISOR 0.01 0.02 O1 O3

L.S. 99
PLAN  20
fmap 2 53
acta
TWIN -1 0 0 0 -1 0 0 0 -1 2
OMIT 1 1 0
OMIT 0 3 1
OMIT 7 3 2
OMIT 1 0 -1
OMIT 0 0 6
REM <olex2.extras>
REM <HklSrc "%.\\spherical.hkl">
REM </olex2.extras>

WGHT    0.018200    1.029600
EXTI    0.064818
BASF   0.46055
FVAR       0.25191
PB1   4    0.000000   -0.823866   -0.143920    10.50000    0.01651    0.01474 =
         0.01827   -0.00023    0.00000    0.00000
O1    3    0.136315   -0.904189   -0.634943    11.00000    0.01256    0.01427 =
         0.10173   -0.00724   -0.00637   -0.00034
O2    3   -0.132705   -1.201560   -0.280006    11.00000    0.01863    0.02068 =
         0.01475    0.00145    0.00067   -0.00258
BE1   2   -0.248893   -1.320804   -0.207049    11.00000    0.01785    0.01231 =
         0.02017    0.00009   -0.00114    0.00089
O3    3   -0.291092   -1.619441   -0.237043    11.00000    0.02186    0.01541 =
         0.01421   -0.00092    0.00205   -0.00056
B1    1    0.158148   -1.161663   -0.575022    11.00000    0.01478    0.01573 =
         0.01596   -0.00092    0.00056    0.00023
HKLF 4

REM  PbBe2B2O6 in Pmn2(1)
REM R1 =  0.0173 for     730 Fo > 4sig(Fo)  and  0.0173 for all     730 data
REM     54 parameters refined using     13 restraints

END

WGHT      0.0182      1.0296

REM Highest difference peak  1.437,  deepest hole -1.581,  1-sigma level  0.229
Q1    1   0.0000 -0.8204 -0.3445  10.50000  0.05    1.44
Q2    1   0.0000 -0.8225  0.0561  10.50000  0.05    1.35
Q3    1   0.1370 -0.9114 -0.5524  11.00000  0.05    0.99
Q4    1   0.0000 -1.2001 -0.1401  10.50000  0.05    0.99
Q5    1   0.1388 -0.9015 -0.7344  11.00000  0.05    0.96
Q6    1  -0.0804 -0.8208 -0.2446  11.00000  0.05    0.58
Q7    1   0.1089 -0.8189 -0.3766  11.00000  0.05    0.57
Q8    1  -0.1932 -1.1724 -0.1470  11.00000  0.05    0.55
Q9    1  -0.1353 -1.2408 -0.0500  11.00000  0.05    0.55
Q10   1  -0.3552 -1.4016 -0.4953  11.00000  0.05    0.52
Q11   1   0.0000 -0.9947 -0.1454  10.50000  0.05    0.50
Q12   1  -0.0807 -0.8127 -0.0434  11.00000  0.05    0.48
Q13   1   0.1066 -0.8356 -0.9127  11.00000  0.05    0.47
Q14   1   0.1369 -0.7291 -0.8068  11.00000  0.05    0.47
Q15   1  -0.1216 -1.0935 -0.1634  11.00000  0.05    0.44
Q16   1   0.0000 -1.4282 -0.3514  10.50000  0.05    0.43
Q17   1  -0.3609 -1.6169 -0.1516  11.00000  0.05    0.42
Q18   1  -0.1436 -1.6249 -0.3149  11.00000  0.05    0.40
Q19   1  -0.1262 -1.5505 -0.1275  11.00000  0.05    0.40
Q20   1   0.0000 -0.6316 -0.4569  10.50000  0.05    0.40
;
_shelx_res_checksum              48965
_shelx_hkl_file
;
   0   0  -1 0.34049  0.0681   0
   0   0  -1 0.20429 0.08755   0
   0   0  -1 0.20429 0.10701   0
   0   0  -1  0.4475 0.11674   0
   0   0   1 0.53506 0.10701   0
   0   0   1 0.17511  0.0681   0
   0   0  -3 0.39376 0.34454   0
   0   0  -3 0.18868  0.2379   0
   0   0  -3-0.01641 0.15587   0
   0   0   3 0.08203 0.09024   0
   0   0   3  0.2379 0.19688   0
   0   0   3-0.03281 0.13946   0
   0   0   3 0.14766 0.07383   0
   0   0  -4 226.778 13.6752   0
   0   0  -4 213.495 13.3779   0
   0   0  -4 221.746 13.3126   0
   0   0  -4 231.738 13.5374   0
   0   0   4 224.697 13.3489   0
   0   0   4  224.03 13.4069   0
   0   0  -5 0.41299 0.19061   0
   0   0  -5-0.00635 0.33674   0
   0   0   5 0.04448 0.22238   0
   0   0   5 0.62266 0.14613   0
   0   0  -6  66.611 4.17014   0
   0   0  -6 75.2626 4.42034   0
   0   0   6  68.924 4.15346   0
   0   0   6 63.1859 4.22018   0
   0   1   6 25.0633 1.59088   0
   0   1   6 24.0229 1.65694   0
   0  -1  -6 26.4725 1.85511   0
   0  -1  -6 24.5789 1.60189   0
   0   1   5 135.538 8.40562   0
   0   1   5 142.023 8.34912   0
   0  -1  -5 137.233 8.36168   0
   0  -1  -5 142.324 8.56256   0
   0   1   4  79.174 4.82376   0
   0   1   4 76.6442 4.86664   0
   0  -1  -4 84.3765 5.03815   0
   0  -1  -4 80.3317 4.85235   0
   0   1   3 422.325 26.1796   0
   0   1   3 446.602 26.1474   0
   0  -1  -3 426.961 26.3086   0
   0  -1  -3 418.946 26.2038   0
   0  -1  -3  483.15 26.1877   0
   0   1   2  198.37 12.0789   0
   0   1   2 193.404 12.1056   0
   0   1   2 215.369 12.0967   0
   0   1   2 216.653 12.1323   0
   0  -1  -2  203.05 12.1502   0
   0  -1  -2 186.317 12.2037   0
   0  -1  -2 209.245 12.1234   0
   0  -1  -2 202.203 12.1145   0
   0   1   1 440.501 26.2466   0
   0   1  -2 224.542 12.6315   0
   0   1  -2 208.006 12.6315   0
   0   1  -2 201.088  12.685   0
   0   1  -2 222.331 12.7653   0
   0  -1   2  211.42 12.6226   0
   0  -1   2 205.893 12.6315   0
   0   1  -3 435.838 25.6394   0
   0   1  -3 397.862 25.4782   0
   0   1  -3 431.403 25.6152   0
   0  -1   3 450.044 25.5185   0
   0  -1   3 423.953 25.4459   0
   0   1  -4 78.7953 4.78803   0
   0   1  -4 82.6614 5.11676   0
   0   1  -4 84.1764 5.05244   0
   0  -1   4 78.6095 4.83091   0
   0  -1   4 77.7876 4.90952   0
   0   1  -5 133.253 8.22357   0
   0   1  -5 142.776 8.54373   0
   0   1  -5 146.555 8.41818   0
   0  -1   5 127.126 8.16708   0
   0  -1   5  132.99 8.25496   0
   0   1  -6 25.0633 2.09182   0
   0   1  -6 25.4046 1.82759   0
   0  -1   6 23.4449 1.64593   0
   0  -1   6 24.2376 1.54684   0
   0   2   6 36.3176 2.28823   0
   0   2   6 34.0186 2.26684   0
   0   2   6 37.0126 2.20803   0
   0  -2  -6  36.093 2.48604   0
   0  -2  -6 33.5321 2.20803   0
   0   2   5 136.948 8.05151   0
   0   2   5 129.212 8.09395   0
   0   2   5 134.147 8.10608   0
   0  -2  -5 129.958 8.05758   0
   0  -2  -5 140.756 8.31828   0
   0   2   4 73.4441 4.69478   0
   0   2   4 75.0547 4.70163   0
   0   2   4 78.2691 4.66051   0
   0  -2  -4 78.7557 4.68792   0
   0  -2  -4  80.853 4.90724   0
   0   2   3 327.176 18.1283   0
   0   2   3 309.163 18.1513   0
   0   2   3 286.493 18.0899   0
   0   2   3 316.374 18.0976   0
   0   2   3 290.282  18.159   0
   0  -2  -3 323.509  18.159   0
   0  -2  -3 310.083 18.1513   0
   0  -2  -3 280.946 18.2894   0
   0  -2  -3 295.054  18.182   0
   0   2   2  211.77 12.9382   0
   0   2   2 215.729 12.8876   0
   0   2   2 229.543  12.896   0
   0   2   2 227.437 12.9129   0
   0  -2  -2 231.699  12.896   0
   0  -2  -2 215.585 13.0729   0
   0  -2  -2 211.812 12.9466   0
   0  -2  -2 188.302 12.9129   0
   0   2   1  270.49 15.8331   0
   0   2   1  267.55  15.869   0
   0   2   1 254.621 15.7973   0
   0  -2  -1 251.349 15.7793   0
   0  -2  -1  285.05 15.7883   0
   0  -2  -1 260.377 15.9497   0
   0  -2  -1 254.998 15.7704   0
   0  -2  -1 274.372 15.7525   0
   0   2   0 410.332 24.4784   0
   0   2   0 425.976 24.5151   0
   0  -2   0 441.867 24.5243   0
   0  -2   0 364.757 24.5151   0
   0   2  -1 301.242 16.5862   0
   0   2  -1 268.769 16.4787   0
   0   2  -1 266.796 16.5235   0
   0   2  -1 278.792 16.4966   0
   0  -2   1 277.026 16.5145   0
   0  -2   1 268.975 16.4607   0
   0   2  -2 213.749 13.2751   0
   0   2  -2 219.999 13.2161   0
   0   2  -2 232.963 13.3677   0
   0  -2   2 219.359 13.1993   0
   0  -2   2 233.948 13.2835   0
   0  -2   2 216.748 13.2077   0
   0  -2   2 216.546  13.233   0
   0   2  -3 306.723 18.7574   0
   0   2  -3 327.651 18.9491   0
   0  -2   3 325.964 18.8417   0
   0  -2   3 299.941  18.742   0
   0   2  -4 72.0871 4.68107   0
   0   2  -4  81.785 4.74961   0
   0   2  -4 71.9157 4.52343   0
   0  -2   4 70.4491 4.46175   0
   0  -2   4 74.9999 4.57141   0
   0   2  -5  136.53 8.03332   0
   0   2  -5 134.651 7.94238   0
   0  -2   5 121.355 7.68168   0
   0  -2   5 121.264 7.78475   0
   0   2  -6 34.3341 2.29357   0
   0   2  -6 33.7032 2.48069   0
   0  -2   6 30.7948 2.01022   0
   0  -2   6 31.3294 2.13318   0
   0   3   5  10.955  0.8321   0
   0   3   5 10.5935 0.77471   0
   0   3   5 11.7584 0.88374   0
   0  -3  -5 11.9707 1.18215   0
   0  -3  -5 10.2319 0.78619   0
   0   3   4 198.034 11.6037   0
   0   3   4 195.741 11.6487   0
   0   3   4 204.757  11.578   0
   0   3   4 174.255 11.7835   0
   0  -3  -4 201.752 11.6102   0
   0  -3  -4 192.107 11.6423   0
   0  -3  -4 189.718 11.8413   0
   0   3   3 32.5422 1.87784   0
   0   3   3 32.7058 1.87784   0
   0   3   3  31.461  1.9632   0
   0   3   3 26.0551 1.89207   0
   0   3   3 27.7622 2.06278   0
   0  -3  -3 31.1053 2.15525   0
   0  -3  -3 31.0698 1.90629   0
   0  -3  -3 31.5321 1.94897   0
   0  -3  -3 30.8564 1.89918   0
   0   3   2 397.972 24.0914   0
   0   3   2 409.561 24.2073   0
   0   3   2 425.472 24.1146   0
   0   3   2 431.735 24.1146   0
   0   3   2 399.124 24.2615   0
   0  -3  -2 376.493 24.1223   0
   0  -3  -2 439.095 24.1146   0
   0  -3  -2 386.166 24.1532   0
   0  -3  -2 381.357  24.362   0
   0   3   1 15.3524 0.93144   0
   0   3   1 15.7119  0.9968   0
   0   3   1 16.1613 1.09485   0
   0   3   1 14.5844 0.95595   0
   0   3   1 12.8767 1.22558   0
   0   3   1 14.7233 0.92327   0
   0  -3  -1 14.2984 0.96412   0
   0  -3  -1 14.9602 0.93961   0
   0   3   0 622.163 36.5616   0
   0  -3   0 604.528 36.4699   0
   0   3  -1 15.7773 1.07851   0
   0   3  -1 13.8572 0.98863   0
   0   3  -1 13.7591 0.93144   0
   0  -3   1 15.3197  0.9151   0
   0  -3   1  14.519 0.88241   0
   0  -3   1 14.4536 1.00497   0
   0   3  -2 407.126 23.7744   0
   0   3  -2  375.79 23.6739   0
   0   3  -2 391.724 23.6197   0
   0  -3   2 359.561 23.6043   0
   0  -3   2 400.515 23.5966   0
   0  -3   2 429.648 23.5888   0
   0  -3   2 414.208 23.6893   0
   0   3  -3 33.3104 2.16948   0
   0   3  -3  31.084 2.04144   0
   0   3  -3 32.0514 1.97031   0
   0  -3   3 31.6388 2.05567   0
   0  -3   3  31.902 1.94186   0
   0  -3   3 31.5748 1.94897   0
   0   3  -4  209.40 12.0083   0
   0   3  -4 193.025 11.7643   0
   0  -3   4 200.692 11.8606   0
   0  -3   4  192.82 11.7129   0
   0  -3   4 187.849 11.7257   0
   0   3  -5 11.1271  1.0846   0
   0   3  -5 10.9665 1.01573   0
   0  -3   5 9.29653 0.70585   0
   0  -3   5 10.1918 0.85505   0
   0   4   5  79.646 5.27977   0
   0   4   5 84.4282 5.08185   0
   0   4   5 86.5947 5.22093   0
   0  -4  -5 82.0103  5.4456   0
   0  -4  -5 87.5843  5.1086   0
   0   4   4 11.5428 0.73992   0
   0   4   4 10.3116 0.98854   0
   0   4   4 10.2109 0.93526   0
   0   4   4  11.454  0.7636   0
   0  -4  -4 11.5961 0.79912   0
   0  -4  -4 11.8388 0.88791   0
   0  -4  -4 10.6667 1.19572   0
   0   4   3 278.027 16.2087   0
   0   4   3 273.423 16.3511   0
   0   4   3 268.482 16.1957   0
   0   4   3 276.525 16.2151   0
   0   4   3 270.425 16.3706   0
   0  -4  -3 261.346 16.2346   0
   0  -4  -3 255.375 16.5389   0
   0  -4  -3  291.73 16.2281   0
   0   4   2 63.1573 3.55129   0
   0   4   2 58.7356 3.55129   0
   0   4   2 60.8594 3.57915   0
   0   4   2 58.1089 3.82286   0
   0   4   2 59.9681 3.73234   0
   0  -4  -2 59.6966 3.57219   0
   0  -4  -2 56.7163 3.60004   0
   0  -4  -2  53.158  3.9482   0
   0  -4  -2 60.0099 3.61396   0
   0   4   1 433.366 26.0777   0
   0   4   1 476.216 26.0412   0
   0   4   1 462.984 26.2237   0
   0  -4  -1 417.222 26.0996   0
   0  -4  -1 421.309 26.0631   0
   0  -4  -1 418.098 26.0777   0
   0   4   0  112.85 6.41825   0
   0   4   0 98.2919 6.25501   0
   0   4   0 103.671 6.35147   0
   0   4   0 106.988 6.23275   0
   0  -4   0 99.4123 6.24017   0
   0   4  -1 444.949 26.3624   0
   0   4  -1 422.273  26.304   0
   0   4  -1  463.40 26.4646   0
   0  -4   1 413.522 26.2821   0
   0  -4   1  466.10   26.45   0
   0   4  -2 62.6838 3.80197   0
   0   4  -2 56.2288 3.67663   0
   0   4  -2 58.3387 3.62789   0
   0  -4   2 60.5322 3.73234   0
   0  -4   2 61.2006 3.60004   0
   0   4  -3 286.433 16.6814   0
   0   4  -3 270.541 16.4742   0
   0   4  -3 264.908 16.5324   0
   0  -4   3 277.658 16.4483   0
   0  -4   3 281.731 16.5778   0
   0   4  -4 11.6375  0.7932   0
   0   4  -4 11.2468 1.01222   0
   0  -4   4 10.0097 0.91158   0
   0  -4   4 10.5365 0.71625   0
   0   4  -5 84.0484 5.25838   0
   0   4  -5 79.3731 5.20488   0
   0  -4   5 83.4814 5.12464   0
   0   5   4 36.4203 2.40572   0
   0   5   4 35.1473 2.52439   0
   0  -5  -4  38.497 2.25469   0
   0  -5  -4 32.1321 2.67542   0
   0   5   3 69.1853 4.68469   0
   0   5   3 73.7708 4.51551   0
   0   5   3 74.5059 4.36382   0
   0   5   3 71.4197 4.34049   0
   0  -5  -3 75.5093 4.36966   0
   0  -5  -3 73.1932 4.38133   0
   0  -5  -3 63.7305 4.81887   0
   0   5   2 93.7748 5.76474   0
   0   5   2 98.5591 5.91988   0
   0  -5  -2 92.9868 5.75854   0
   0  -5  -2 97.6345 5.79577   0
   0   5   1 147.292 8.87201   0
   0   5   1 135.921 8.98178   0
   0   5   1 158.456 9.03343   0
   0  -5  -1 148.403 8.85909   0
   0  -5  -1 150.107 8.89784   0
   0   5   0 167.756  10.076   0
   0   5   0  164.98 10.0039   0
   0   5   0 170.918 10.1545   0
   0  -5   0 165.019 9.98431   0
   0   5  -1 166.554 9.33046   0
   0   5  -1 147.169 9.13675   0
   0   5  -1 153.484 9.19486   0
   0  -5   1 143.231 9.11092   0
   0   5  -2 101.147 5.96331   0
   0   5  -2 99.6575 5.77095   0
   0   5  -2 90.5977 5.81439   0
   0  -5   2 94.3209  5.9509   0
   0  -5   2 92.7137 5.73992   0
   0   5  -3 73.5724 4.57968   0
   0   5  -3 73.8408 4.52134   0
   0   5  -3 77.4929 4.74303   0
   0  -5   3 75.4801 4.68469   0
   0  -5   3 72.1606  4.4805   0
   0   5  -4 36.2531 2.32481   0
   0   5  -4 40.0397 2.57294   0
   0  -5   4 37.1431 2.49742   0
   0  -5   4 35.3631 2.26548   0
   0   6   3 18.6594 1.40037   0
   0   6   3 17.6719 1.20704   0
   0  -6  -3 19.2603 1.25929   0
   0  -6  -3 19.3492 1.26452   0
   0   6   2 124.391 7.42083   0
   0   6   2  119.02  7.2831   0
   0   6   2 115.202 7.25555   0
   0  -6  -2 116.607 7.25555   0
   0  -6  -2 128.843 7.30513   0
   0   6   1 28.7304 1.88574   0
   0   6   1 32.5703 2.06235   0
   0  -6  -1 29.2717 1.88004   0
   0   6   0 150.015 9.16953   0
   0   6   0 161.835 9.33666   0
   0  -6   0 147.064 9.15224   0
   0   6  -1 28.4114 1.85725   0
   0   6  -1 31.1346 2.05665   0
   0  -6   1 29.2147 1.83446   0
   0   6  -2 125.063  7.5255   0
   0   6  -2 133.437 7.75138   0
   0  -6   2 116.822 7.49245   0
   0   6  -3 19.6418 1.52578   0
   0   6  -3 19.8404 1.26974   0
   0  -6   3 17.8077 1.21749   0
  -1  -6   2 13.7186 0.97872   0
   1   6  -2 16.0445 1.27014   0
   1   6  -2 15.3407 1.02271   0
  -1  -6   1 139.783 8.88638   0
   1   6  -1  156.60 9.11948   0
   1   6  -1 157.919 9.13654   0
   1   6  -1 140.391 8.90912   0
  -1  -6   0 9.76012 0.71893   0
   1   6   0 10.7321 0.74193   0
   1   6   0 10.8184 0.93748   0
  -1  -6  -1 143.797 8.69307   0
   1   6   1 154.525 8.90343   0
   1   6   1 137.361 8.70444   0
  -1  -6  -2 14.5489 1.01721   0
  -1  -6  -2   16.05  1.0722   0
   1   6   2  14.329 1.00622   0
   1   6   2 15.6156 1.22066   0
  -1  -5   4 52.4116 3.20338   0
  -1  -5   4 51.9701 3.40258   0
   1   5  -4 56.1749 3.51564   0
   1   5  -4 51.1087 3.25722   0
  -1  -5   3  81.701 5.05901   0
   1   5  -3 82.7197 5.16962   0
   1   5  -3  88.652 5.33263   0
   1   5  -3 83.7618 5.09394   0
  -1  -5   2 88.5086 5.25009   0
   1   5  -2 75.2472 5.26247   0
   1   5  -2 92.5514 5.36153   0
   1   5  -2 93.3191 5.48535   0
  -1  -5   1 156.447 9.98406   0
   1   5  -1 163.037 10.0098   0
   1   5  -1 174.328 10.1064   0
   1   5  -1 175.262 10.2031   0
  -1  -5   0 104.839 6.36098   0
   1   5   0  107.66 6.49812   0
   1   5   0 105.838  6.3871   0
  -1  -5  -1 159.706 9.52673   0
  -1  -5  -1 165.246  9.5847   0
   1   5   1  144.37  9.6942   0
   1   5   1 174.238 9.74573   0
   1   5   1 153.368 9.54605   0
  -1  -5  -2 94.4335 5.44202   0
  -1  -5  -2 90.3969  5.3863   0
   1   5   2 93.2944  5.5906   0
   1   5   2 78.7514 5.70824   0
   1   5   2 89.7778 5.39868   0
  -1  -5  -3 86.2709 5.00661   0
  -1  -5  -3 82.0619 4.97168   0
  -1  -5  -3 77.2823 5.41995   0
   1   5   3 81.2818 5.15216   0
   1   5   3 86.2942 4.98333   0
   1   5   3 78.8775 4.96004   0
   1   5   3 83.0574 5.32098   0
  -1  -5  -4 55.6042 3.26798   0
  -1  -5  -4  50.791 3.64485   0
   1   5   4 51.7655 3.20876   0
   1   5   4 52.8477 3.51026   0
   1   5   4 52.5785  3.4295   0
  -1  -4   5 11.7572 1.00913   0
  -1  -4   5 11.4102 0.77954   0
   1   4  -5  12.163 1.17465   0
   1   4  -5 10.7267 1.11592   0
  -1  -4   4 157.387 9.61593   0
  -1  -4   4 167.263  9.7695   0
   1   4  -4 160.789 9.88763   0
   1   4  -4 159.253 9.65727   0
  -1  -4   3 17.1509 1.16923   0
  -1  -4   3 19.9221 1.18215   0
  -1  -4   3 18.9855 1.31781   0
   1   4  -3  18.656 1.20799   0
   1   4  -3 18.1844 1.29197   0
   1   4  -3 20.5746 1.45992   0
  -1  -4   2 261.389 15.8476   0
  -1  -4   2 264.764 15.8198   0
  -1  -4   2 279.709 15.9518   0
   1   4  -2 256.437 15.8615   0
   1   4  -2 267.083 16.0421   0
   1   4  -2 267.139 15.9449   0
  -1  -4   1 12.7428 0.95334   0
  -1  -4   1  11.935 0.80052   0
   1   4  -1 12.8301 0.93879   0
  -1  -4   0 267.471 16.6896   0
  -1  -4   0 280.535 16.7414   0
   1   4   0 267.729 16.7118   0
   1   4   0 293.134 16.6674   0
   1   4   0  270.43 16.8376   0
   1   4   0 303.114 16.8894   0
  -1  -4  -1 12.4517 0.80779   0
  -1  -4  -1 12.8665 0.85874   0
   1   4   1 9.94823 1.11345   0
   1   4   1 13.0048 0.82963   0
   1   4   1 13.3468 1.00428   0
  -1  -4  -2  244.61  16.056   0
  -1  -4  -2  254.50 15.7296   0
  -1  -4  -2 276.674 15.6948   0
   1   4   2 274.222 15.6948   0
   1   4   2 256.854 15.9518   0
   1   4   2 258.965 15.7087   0
   1   4   2 277.257 15.9032   0
  -1  -4  -3 19.9997 1.22737   0
  -1  -4  -3 19.1405  1.6085   0
  -1  -4  -3 19.3214 1.25967   0
   1   4   3 17.6354 1.40824   0
   1   4   3 19.4054 1.22091   0
   1   4   3 19.2955 1.40824   0
   1   4   3 18.8627 1.20153   0
  -1  -4  -4 173.807 9.65727   0
  -1  -4  -4 160.978 9.92898   0
   1   4   4 160.015 9.73406   0
   1   4   4 145.166 9.80494   0
   1   4   4 158.303  9.5923   0
   1   4   4 164.693 9.60411   0
  -1  -4  -5 12.5368 0.87031   0
  -1  -4  -5 11.1592 1.25474   0
   1   4   5 10.2248 1.12126   0
   1   4   5 12.0616 0.84362   0
   1   4   5 11.9922 1.01981   0
  -1  -3   5  116.66 7.18135   0
  -1  -3   5 120.617 7.33597   0
  -1  -3   5 115.154 7.20998   0
   1   3  -5 125.072 7.49059   0
   1   3  -5 124.809 7.53641   0
  -1  -3   4 7.97551 0.69185   0
  -1  -3   4 7.35413 0.54451   0
  -1  -3   4 7.45022 0.52529   0
   1   3  -4 8.75705 0.86481   0
   1   3  -4 7.94348 0.58295   0
  -1  -3   3 281.192 15.8606   0
  -1  -3   3 251.804 15.7471   0
  -1  -3   3 257.741 15.7471   0
   1   3  -3 265.515 15.8606   0
   1   3  -3 271.935 15.9741   0
   1   3  -3 259.699 15.7683   0
  -1  -3   2 9.94209 0.63968   0
  -1  -3   2 10.2658 0.73988   0
  -1  -3   2   9.734 0.62427   0
  -1  -3   2 8.90935 0.64739   0
   1   3  -2 10.3891 0.66281   0
   1   3  -2  10.235 0.75529   0
  -1  -3   1 515.885 31.8952   0
   1   3  -1  525.86 31.9115   0
   1   3  -1 551.681 32.0581   0
   1   3  -1 553.692 32.0092   0
  -1  -3   0  3.4699 0.28224   0
  -1  -3   0 3.65252 0.32375   0
   1   3   0 3.91816 0.26564   0
   1   3   0  3.4533 0.30714   0
   1   3   0 3.87666 0.46487   0
   1   3   0 3.57781 0.49807   0
  -1  -3  -1 488.746 30.4133   0
   1   3   1 458.031  30.625   0
   1   3   1 565.744 30.3888   0
   1   3   1 553.774  30.568   0
   1   3   1 489.063 30.4214   0
  -1  -3  -2 10.3968 0.95567   0
  -1  -3  -2 10.2273 0.70905   0
  -1  -3  -2 10.3506 0.67822   0
   1   3   2 10.2966 0.80924   0
   1   3   2 10.1656  0.8786   0
   1   3   2  9.9498 0.67051   0
   1   3   2 10.4585 0.66281   0
  -1  -3  -3 265.487 16.0805   0
  -1  -3  -3 280.674 15.8464   0
  -1  -3  -3 270.069 15.8747   0
   1   3   3 277.815 15.8464   0
   1   3   3 264.799 15.9173   0
   1   3   3 267.204 15.8322   0
   1   3   3  233.83 16.0379   0
  -1  -3  -4 7.98192 0.73669   0
  -1  -3  -4 8.78267 0.92247   0
  -1  -3  -4 10.0703 0.67263   0
   1   3   4 7.94989 0.62138   0
   1   3   4 8.53284 0.71748   0
   1   3   4  6.9057 0.90966   0
   1   3   4 8.72502 0.60857   0
  -1  -3  -5 128.634 7.88574   0
  -1  -3  -5 133.525 8.14917   0
   1   3   5 131.337 7.94873   0
   1   3   5 130.335 7.85711   0
  -1  -2   6 50.0177 3.34056   0
  -1  -2   6 50.7221 3.23383   0
   1   2  -6 57.0937 3.53267   0
   1   2  -6 54.9911 3.69809   0
  -1  -2   5 50.5802  3.3212   0
  -1  -2   5 52.9335 3.42404   0
   1   2  -5 59.0072 3.69627   0
   1   2  -5 57.0351 3.59948   0
  -1  -2   4 178.684  11.251   0
  -1  -2   4 186.886 11.3536   0
   1   2  -4 199.053 11.5245   0
   1   2  -4 175.239 11.2852   0
   1   2  -4 203.893 11.5313   0
  -1  -2   3 138.898 8.40485   0
  -1  -2   3 128.566 8.32073   0
   1   2  -3 144.305 8.32837   0
   1   2  -3 147.035 8.52722   0
   1   2  -3 138.171 8.42015   0
  -1  -2   2 391.326 25.0292   0
   1   2  -2 431.589 25.0124   0
   1   2  -2 439.278 25.1634   0
  -1  -2   1 337.726 20.9075   0
   1   2  -1 365.011  20.979   0
   1   2   0 434.232 25.9608   0
  -1  -2  -1  341.62  21.238   0
  -1  -2  -1 353.472 21.0772   0
   1   2   1 350.283 21.0861   0
   1   2   1 354.374 21.2022   0
   1   2   1 370.735 21.1576   0
  -1  -2  -2 503.403 26.1119   0
  -1  -2  -2 392.627  26.221   0
  -1  -2  -2  430.96 26.1119   0
  -1  -2  -2 437.129 26.0615   0
  -1  -2  -2 433.394 26.1203   0
   1   2   2 428.173 26.0615   0
   1   2   2 426.217 26.1287   0
   1   2   2 456.022 26.0783   0
  -1  -2  -3  132.00 8.40485   0
  -1  -2  -3 147.073 8.29014   0
  -1  -2  -3 138.393  8.2519   0
   1   2   3 144.435 8.24425   0
   1   2   3 129.331 8.27484   0
   1   2   3 143.173 8.20601   0
   1   2   3 125.897 8.20601   0
   1   2   3  141.72 8.25955   0
  -1  -2  -4 205.793 11.9756   0
  -1  -2  -4 198.998 12.1396   0
   1   2   4 201.329 11.9346   0
   1   2   4 196.257 11.9824   0
   1   2   4 196.647 11.9688   0
  -1  -2  -5 61.3544 3.70837   0
  -1  -2  -5 49.0376 3.45429   0
   1   2   5 56.6116 3.48454   0
   1   2   5 58.1119 3.44219   0
   1   2   5 57.4525 3.50268   0
  -1  -2  -6 54.1106  3.4793   0
  -1  -2  -6 57.3445 3.70343   0
   1   2   6 56.1865 3.52199   0
   1   2   6 55.5141 3.45796   0
   1   2   6 59.8045   3.538   0
  -1  -1   6 80.4831 4.95568   0
  -1  -1   6 78.8239 5.05457   0
   1   1  -6 80.1424 5.41169   0
   1   1  -6 89.1528 5.25236   0
  -1  -1   5 35.2728 2.22334   0
  -1  -1   5 34.6841 2.31102   0
   1   1  -5 39.8885 2.50517   0
   1   1  -5 38.4857 2.64295   0
   1   1  -5 32.9743 2.24213   0
  -1  -1   4 282.879 16.8537   0
  -1  -1   4 284.888 16.9321   0
   1   1  -4 301.735  17.096   0
   1   1  -4 305.776 17.1459   0
   1   1  -4 245.687 16.8466   0
   1   1  -4 276.736 16.9036   0
  -1  -1   3 88.0409 4.90991   0
  -1  -1   3 80.4068 5.00634   0
  -1  -1   3 79.5148 4.94205   0
   1   1  -3  79.989 5.12688   0
   1   1  -3 75.7782 4.95813   0
   1   1  -3 84.0872 4.94205   0
   1   1  -3 88.1453 5.15099   0
  -1  -1   1 143.964 9.90267   0
  -1  -1   1 156.943 9.94065   0
  -1  -1   1 175.552 9.93116   0
  -1  -1   1 162.753 9.95014   0
  -1  -1   1 164.652 9.90267   0
   1   1  -1 167.282 9.90267   0
   1   1  -1 159.164 9.95014   0
   1   1  -1 188.948 9.93116   0
   1   1  -1 178.742 9.91217   0
   1   1  -1 164.662 9.95964   0
  -1  -1   0 287.803 18.1327   0
   1   1   0 334.004 18.0551   0
   1   1   0 286.152 18.1133   0
  -1  -1  -1 155.338 9.91217   0
  -1  -1  -1 160.845 9.84571   0
  -1  -1  -1 156.857 9.84571   0
  -1  -1  -1 184.837 9.83621   0
  -1  -1  -1  170.14 9.82672   0
  -1  -1  -1 166.769 9.80773   0
   1   1   1 163.987  9.8552   0
   1   1   1 166.095 9.80773   0
   1   1   1 163.209 9.82672   0
   1   1   1 162.222  9.8552   0
  -1  -1  -2 595.322 31.5085   0
  -1  -1  -2  503.31 31.5529   0
   1   1   2  489.35 31.4819   0
  -1  -1  -3 87.3578 5.10277   0
  -1  -1  -3 82.3997 5.19117   0
   1   1   3 82.8336 5.00634   0
   1   1   3 83.6453 5.04652   0
   1   1   3 83.9104  5.0867   0
  -1  -1  -4 306.517 18.2077   0
  -1  -1  -4 312.845 18.3502   0
   1   1   4 300.759  18.165   0
   1   1   4 299.198 18.2077   0
  -1  -1  -5 37.3333 2.46133   0
  -1  -1  -5 36.6444 2.29849   0
   1   1   5 35.6987 2.31728   0
   1   1   5 36.6945 2.26091   0
  -1  -1  -6 81.5105 5.08204   0
  -1  -1  -6  86.653 5.27983   0
   1   1   6 84.8344 5.06556   0
   1   1   6 78.4667  5.1205   0
   1   1   6 87.0046   5.126   0
  -1   0   6 -0.0222 0.14428   0
  -1   0   6-0.02775 0.24971   0
   1   0  -6 0.22197 0.45504   0
  -1   0   5 199.753 11.6629   0
  -1   0   5 173.099   11.72   0
   1   0  -5 218.902 11.9292   0
   1   0  -5 189.573 11.6629   0
  -1   0   4 0.10845 0.10122   0
  -1   0   4 0.10845 0.18075   0
   1   0  -4 0.58564 0.35428   0
   1   0  -4 0.03615 0.36873   0
   1   0  -4 0.37596 0.15183   0
  -1   0   3 402.205 22.8094   0
   1   0  -3 384.007 22.8666   0
   1   0  -3 382.102 22.9729   0
   1   0  -3 374.777 23.0383   0
   1   0  -3 373.289 22.8257   0
  -1   0   2 0.07246 0.12681   0
  -1   0   2  0.3442 0.06341   0
   1   0  -2 0.25362 0.19022   0
   1   0  -2 0.11775 0.09058   0
   1   0  -2  0.3442 0.13587   0
   1   0  -2 0.18116 0.18116   0
  -1   0  -1 450.655 26.8399   0
  -1   0  -2 0.07246 0.12681   0
  -1   0  -2 0.48913 0.24456   0
  -1   0  -2 0.32609 0.15399   0
   1   0   2 0.29891 0.07246   0
   1   0   2 0.01812  0.1087   0
   1   0   2 0.07246 0.09964   0
   1   0   2 0.24456 0.09964   0
  -1   0  -3 378.946 23.5206   0
  -1   0  -3 339.181 23.4716   0
  -1   0  -3  391.21 23.7087   0
  -1   0  -3 390.392 23.5942   0
   1   0   3  413.12 23.4634   0
   1   0   3 416.308 23.5206   0
   1   0   3 430.607 23.4389   0
  -1   0  -4 0.00723 0.17352   0
  -1   0  -4 -0.0723 0.24582   0
  -1   0  -4  0.4555 0.36873   0
   1   0   4-0.03615 0.09399   0
   1   0   4 0.02169 0.17352   0
  -1   0  -5  209.54 12.0876   0
  -1   0  -5  190.79 11.9292   0
   1   0   5 200.469 11.8911   0
   1   0   5 195.177 11.9608   0
  -1   0  -6 0.11653 0.36625   0
  -1   0  -6 0.18867 0.26636   0
   1   0   6 0.55492 0.17203   0
   1   0   6 0.14983 0.24417   0
  -1   1   6 78.2799 5.09853   0
  -1   1   6 85.0377 5.03809   0
   1  -1  -6 86.5596 5.29082   0
  -1   1   5 37.3646 2.25465   0
  -1   1   5 35.8364 2.31102   0
   1  -1  -5 38.5545 2.50517   0
   1  -1  -5 34.1893 2.24213   0
  -1   1   4 281.161 17.4737   0
  -1   1   4 293.354 17.4238   0
   1  -1  -4 289.563 17.4309   0
   1  -1  -4 316.821  17.659   0
   1  -1  -4 281.639 17.4951   0
  -1   1   3 84.1837 5.07866   0
  -1   1   3 81.6042  4.9983   0
  -1   1   3 82.7774 5.02241   0
   1  -1  -3 85.0355 5.03848   0
   1  -1  -3  84.923 5.22331   0
  -1   1   2 461.127 29.1107   0
  -1   1   2  478.56 28.9864   0
   1  -1  -2 465.585 29.1107   0
   1  -1  -2 546.568 29.0486   0
  -1   1   1 148.891  8.8298   0
  -1   1   1  147.79 8.81081   0
  -1   1   1 139.634 8.86778   0
  -1   1   1 145.549 8.87728   0
   1  -1  -1 146.594 8.82031   0
   1  -1  -1 152.926 8.82031   0
   1  -1  -1 148.654 8.85829   0
   1  -1  -1 154.711 8.90576   0
  -1   1   0 337.122 20.0461   0
  -1   1  -1 153.078 9.49441   0
  -1   1  -1 164.918 9.56087   0
  -1   1  -1 146.917 9.50391   0
  -1   1  -1 170.453 9.48492   0
   1  -1   1 163.408 9.47542   0
   1  -1   1 153.002  9.5134   0
   1  -1   1 156.458 9.56087   0
   1  -1   1 164.927 9.53239   0
   1  -1   1 161.709 9.49441   0
  -1   1  -3 80.1497 5.13491   0
  -1   1  -3 78.6228 5.03848   0
  -1   1  -3 87.3016 5.04652   0
  -1   1  -3 88.1293 5.27956   0
  -1   1  -3 84.2881 5.22331   0
   1  -1   3 82.4881 5.07063   0
   1  -1   3 90.3311 5.16706   0
  -1   1  -4 303.174 17.6447   0
  -1   1  -4 319.686 17.7588   0
  -1   1  -4 246.584 17.4167   0
   1  -1   4 294.559 17.4595   0
   1  -1   4 302.369  17.545   0
  -1   1  -5  35.254 2.58032   0
  -1   1  -5 38.6172  2.4488   0
  -1   1  -5 34.0265 2.30476   0
   1  -1   5 35.5483 2.31102   0
   1  -1   5 36.6882 2.22334   0
  -1   1  -6   86.62 5.19193   0
  -1   1  -6  84.252  5.4007   0
  -1   1  -6 80.1479 5.01611   0
   1  -1   6  78.703 5.05457   0
   1  -1   6 81.1973 4.96117   0
  -1   2   6 53.5663 3.52199   0
  -1   2   6 57.9422 3.54334   0
  -1   2   6 57.2538 3.46863   0
   1  -2  -6 58.0862 3.76747   0
  -1   2   5 58.6987 3.50873   0
  -1   2   5  59.225 3.57528   0
  -1   2   5 53.9014 3.55108   0
   1  -2  -5 55.7465 3.50873   0
   1  -2  -5 60.9249 3.81121   0
  -1   2   4 190.441 11.5518   0
  -1   2   4 198.076 11.5039   0
  -1   2   4 193.175 11.4629   0
  -1   2   4 185.396  11.545   0
   1  -2  -4 183.872 11.5791   0
   1  -2  -4 196.811 11.5176   0
   1  -2  -4 200.673 11.7705   0
  -1   2   3 132.076 8.24425   0
  -1   2   3 139.013 8.21366   0
  -1   2   3 143.334 8.25955   0
  -1   2   3 141.789 8.19836   0
   1  -2  -3 133.399 8.28249   0
   1  -2  -3 138.164 8.22895   0
   1  -2  -3 141.957 8.26719   0
   1  -2  -3 128.742  8.3972   0
  -1   2   2 388.724 24.5591   0
  -1   2   2 403.706 24.4584   0
   1  -2  -2 424.178  24.492   0
   1  -2  -2 416.683 24.6095   0
   1  -2  -2 398.788 24.4332   0
   1  -2  -2 432.756 24.4416   0
  -1   2   1 382.605 21.7292   0
  -1   2   1 344.585 21.7113   0
  -1   2   1 386.365 21.6934   0
   1  -2  -1 333.002 21.8185   0
   1  -2  -1 348.015 21.6845   0
   1  -2  -1 389.357 21.6488   0
   1  -2   0  499.39 31.9216   0
   1  -2   0 569.112 31.8121   0
  -1   2  -1 385.418 21.8185   0
  -1   2  -1 355.705  21.756   0
   1  -2   1 381.354 21.7917   0
   1  -2   1 339.129 21.7917   0
  -1   2  -2 424.354 25.8853   0
  -1   2  -2 414.441 25.8013   0
   1  -2   2 460.689 25.8349   0
  -1   2  -3 151.364 8.84842   0
  -1   2  -3 144.695 8.67252   0
   1  -2   3 137.193 8.64193   0
   1  -2   3 145.789 8.62664   0
   1  -2   3 145.085 8.74135   0
  -1   2  -4 202.826 11.7842   0
  -1   2  -4 183.236 11.5586   0
  -1   2  -4 206.675 11.8457   0
  -1   2  -4  189.06 11.6407   0
   1  -2   4 196.367 11.6885   0
   1  -2   4 188.677 11.5791   0
   1  -2   4 191.644 11.5381   0
  -1   2  -5 57.5735 3.62972   0
  -1   2  -5 59.1343 3.73862   0
   1  -2   5 54.8754 3.50873   0
   1  -2   5 52.7701 3.39379   0
  -1   2  -6 56.2559 3.47397   0
  -1   2  -6 49.7882 3.31388   0
  -1   2  -6 56.0051 3.64473   0
   1  -2   6 51.6132 3.22316   0
   1  -2   6 51.1116 3.33522   0
  -1   3   5 132.145 7.64522   0
  -1   3   5 129.413 7.60513   0
  -1   3   5 129.934 7.55931   0
  -1   3   5 108.614 7.73684   0
   1  -3  -5 128.949 7.91437   0
   1  -3  -5 126.126 7.55931   0
  -1   3   4 9.21828 0.69185   0
  -1   3   4 8.55205 0.55732   0
  -1   3   4  8.4944  0.6342   0
  -1   3   4 7.34131 0.80075   0
  -1   3   4  8.3855 0.59576   0
   1  -3  -4 8.53284 0.60857   0
   1  -3  -4 6.93133 0.73669   0
   1  -3  -4 8.15488 0.69826   0
   1  -3  -4 7.82817 0.97372   0
  -1   3   3 277.049 16.2223   0
  -1   3   3 260.543 16.2862   0
  -1   3   3 290.931 16.2294   0
  -1   3   3  288.71 16.2223   0
  -1   3   3 253.152 16.3642   0
  -1   3   3 290.619 16.2578   0
   1  -3  -3 256.252 16.2365   0
   1  -3  -3 265.423 16.3003   0
   1  -3  -3 286.944 16.2578   0
   1  -3  -3 253.223 16.4777   0
  -1   3   2 9.26387 0.79383   0
  -1   3   2 10.2889 0.66281   0
  -1   3   2 11.1906 0.70905   0
  -1   3   2 10.5895 0.70134   0
  -1   3   2 10.0346 0.80924   0
  -1   3   2 11.7687 0.69363   0
   1  -3  -2 9.14056 0.68593   0
   1  -3  -2 10.4739 0.75529   0
   1  -3  -2 10.5278 0.69363   0
   1  -3  -2 10.0962 0.99421   0
  -1   3   1 518.507 31.1868   0
  -1   3   1 524.362 31.2194   0
   1  -3  -1 553.033 31.0891   0
   1  -3  -1 496.139 31.1217   0
  -1   3   0 4.39963 0.45657   0
  -1   3   0 4.67357 0.39846   0
  -1   3   0 4.48264 0.37355   0
  -1   3   0 3.65252 0.31544   0
   1  -3   0 3.00503 0.66409   0
   1  -3   0 3.76874 0.33205   0
  -1   3  -1 545.069 32.6362   0
  -1   3  -1 529.671 32.5548   0
   1  -3   1 538.416 32.5141   0
   1  -3   1  575.67 32.6444   0
  -1   3  -2 10.4662 0.68593   0
  -1   3  -2 9.91127 0.73217   0
  -1   3  -2 11.2369 0.84007   0
   1  -3   2 9.86502 0.77841   0
   1  -3   2  10.235 0.64739   0
   1  -3   2 9.97292  0.6551   0
  -1   3  -3 265.381 16.4777   0
  -1   3  -3 274.964 16.6479   0
   1  -3   3 282.823 16.4564   0
   1  -3   3 276.943 16.5699   0
   1  -3   3 281.986 16.4493   0
  -1   3  -4 8.68017 0.62779   0
  -1   3  -4 8.03957 0.83919   0
   1  -3   4 8.25738 0.55092   0
   1  -3   4 7.99473 0.57654   0
   1  -3   4 8.85314 0.74951   0
  -1   3  -5 127.535 7.84565   0
  -1   3  -5 135.718 7.93728   0
   1  -3   5 120.353 7.61086   0
   1  -3   5 125.089 7.74257   0
  -1   4   5 11.7786 0.83828   0
  -1   4   5 12.2378 1.03583   0
   1  -4  -5 10.1234 1.34551   0
   1  -4  -5 12.5047 0.84896   0
  -1   4   4 155.172 9.87582   0
  -1   4   4 161.876  9.8581   0
  -1   4   4 172.047 9.75178   0
  -1   4   4 170.606 9.73997   0
   1  -4  -4 160.718 9.75769   0
   1  -4  -4 150.447 10.0825   0
   1  -4  -4 168.745 9.81084   0
  -1   4   3  21.395 1.27259   0
  -1   4   3 18.6043 1.40178   0
  -1   4   3 19.7025 1.24675   0
  -1   4   3 19.0824 1.38241   0
  -1   4   3 20.8976 1.24029   0
  -1   4   3 18.1005 1.22091   0
   1  -4  -3 18.9273 1.25967   0
   1  -4  -3 17.3317 1.63434   0
   1  -4  -3 19.7994 1.31781   0
   1  -4  -3 21.1753 1.27905   0
  -1   4   2 282.938 15.3337   0
  -1   4   2 254.812  15.556   0
  -1   4   2 271.229 15.4587   0
  -1   4   2 251.645  15.299   0
  -1   4   2 252.187 15.3476   0
  -1   4   2 270.014 15.3407   0
   1  -4  -2 245.013 15.3476   0
   1  -4  -2 215.971 15.6462   0
   1  -4  -2  268.16 15.3337   0
   1  -4  -2 258.583 15.3823   0
  -1   4   1 12.8592 0.93151   0
  -1   4   1  11.069 1.04067   0
  -1   4   1 12.4517 0.81507   0
   1  -4  -1 12.3207 0.82963   0
   1  -4  -1 11.9932 0.80052   0
   1  -4  -1 13.0048 0.84418   0
  -1   4   0 262.795 16.4529   0
  -1   4   0 301.353 16.5861   0
  -1   4   0 285.973 16.5121   0
   1  -4   0  258.29 16.4381   0
   1  -4   0 272.435 16.4381   0
  -1   4  -1 12.4808 0.82235   0
  -1   4  -1 13.1357 0.96062   0
  -1   4  -1 11.7239 0.86601   0
   1  -4   1 12.1242 0.80052   0
   1  -4   1 13.2376 1.14255   0
  -1   4  -2 251.236 15.6323   0
  -1   4  -2 279.653  15.799   0
  -1   4  -2  249.84 15.6601   0
   1  -4   2 270.382 15.7643   0
   1  -4   2 259.764 15.6046   0
  -1   4  -3 17.5643 1.28551   0
  -1   4  -3 19.1405 1.24675   0
  -1   4  -3 21.1301 1.46638   0
   1  -4   3 19.9415 1.20799   0
   1  -4   3 19.2439 1.37595   0
  -1   4  -4 169.484 10.1534   0
  -1   4  -4 164.422 9.93488   0
   1  -4   4 164.239 9.88172   0
   1  -4   4 164.617 10.0471   0
  -1   4  -5 11.5703 1.11592   0
  -1   4  -5 11.4582 1.04651   0
   1  -4   5 10.9884 0.98778   0
  -1   5   4 53.3753 3.39181   0
   1  -5  -4 57.0632 3.28413   0
   1  -5  -4 45.5095 3.67177   0
   1  -5  -4 56.3471 3.34336   0
  -1   5   3 86.6959 4.83196   0
  -1   5   3 67.2866 4.92511   0
  -1   5   3 87.3538 4.84943   0
  -1   5   3 77.5676 5.21619   0
   1  -5  -3 85.1939 4.85525   0
   1  -5  -3 83.5639 4.85525   0
   1  -5  -3 70.5641 5.28605   0
  -1   5   2 89.6168 5.28105   0
  -1   5   2 93.6411 5.26247   0
  -1   5   2 90.8922  5.3863   0
  -1   5   2  76.312 5.46678   0
   1  -5  -2 87.3509 5.27486   0
   1  -5  -2 84.6082 5.25628   0
  -1   5   1 150.721  9.6942   0
  -1   5   1 160.776 9.62335   0
  -1   5   1 171.707 9.75862   0
   1  -5  -1 159.616 9.61047   0
  -1   5   0 107.216 6.48506   0
  -1   5   0  113.10 6.62221   0
  -1   5   0 107.457 6.52425   0
   1  -5   0 103.859 6.46547   0
  -1   5  -1 167.868 9.80371   0
  -1   5  -1 155.346 9.66844   0
  -1   5  -1 158.888 9.64911   0
   1  -5   1 162.624 9.62979   0
  -1   5  -2 89.4249 5.47297   0
  -1   5  -2 82.6394 5.48535   0
  -1   5  -2 98.9716  5.6649   0
   1  -5   2 89.1339 5.44202   0
   1  -5   2  93.703 5.70824   0
  -1   5  -3  77.748 5.01826   0
  -1   5  -3 81.6194 4.98915   0
  -1   5  -3 82.8245 5.18708   0
   1  -5   3 86.7774 5.19291   0
   1  -5   3 83.4765 4.95422   0
  -1   5  -4 55.5773 3.54256   0
  -1   5  -4 52.7292 3.32182   0
   1  -5   4  54.199 3.49949   0
   1  -5   4 53.5206  3.2626   0
  -1   6   2 14.1585 1.01171   0
  -1   6   2 15.3737 1.14918   0
  -1   6   2 14.3015 0.98422   0
   1  -6  -2 15.5496 1.02821   0
   1  -6  -2 14.6479 0.99522   0
  -1   6   1 144.598 8.61916   0
  -1   6   1 144.922 8.73855   0
   1  -6  -1 141.443 8.60779   0
  -1   6   0 10.6746 0.75918   0
  -1   6   0 11.7616 0.93748   0
   1  -6   0 10.2777 0.74193   0
  -1   6  -1 154.076 8.86932   0
  -1   6  -1 144.377 8.69876   0
   1  -6   1 136.457 8.67033   0
  -1   6  -2 14.9118 1.00622   0
  -1   6  -2 15.3022 1.22615   0
   1  -6   2 14.5544 0.97872   0
  -2  -6   2 104.478  6.3413   0
   2   6  -2 106.217 6.46703   0
   2   6  -2 105.916  6.3741   0
   2   6  -2 105.572 6.58729   0
  -2  -6   1 11.3979 0.75722   0
   2   6  -1 10.9515   0.955   0
   2   6  -1 11.0249 1.02282   0
   2   6  -1 10.5107 0.77417   0
  -2  -6   0 125.217  7.4306   0
   2   6   0 124.634 7.57921   0
   2   6   0 117.935 7.44203   0
   2   6   0 127.669 7.64208   0
  -2  -6  -1 12.7428 0.88154   0
   2   6   1 12.0364 1.03977   0
   2   6   1  10.279 1.10193   0
   2   6   1 10.2508 0.78548   0
  -2  -6  -2  106.84 6.21556   0
  -2  -6  -2 112.153  6.2757   0
   2   6   2 98.9461 6.21556   0
   2   6   2 105.971  6.4233   0
   2   6   2 91.4349 6.43969   0
  -2  -5   4  65.956 4.07407   0
   2   5  -4 66.6734 4.37922   0
   2   5  -4 70.1265 4.23468   0
  -2  -5   3 74.9331 4.70899   0
   2   5  -3 79.1793  4.7437   0
   2   5  -3 78.8322 4.98088   0
   2   5  -3 79.9082 4.84783   0
  -2  -5   2 109.866 6.78863   0
   2   5  -2 120.424  6.9362   0
   2   5  -2 102.401 6.81322   0
   2   5  -2 120.978 7.04689   0
  -2  -5   1  93.267 6.12614   0
   2   5  -1 103.901 6.15172   0
   2   5  -1 107.994 6.27961   0
   2   5  -1 103.524 6.34996   0
  -2  -5   0 127.789 7.79193   0
   2   5   0 123.472 7.81138   0
   2   5   0 142.141 8.03178   0
   2   5   0 127.419 7.95399   0
  -2  -5  -1  105.66 6.08777   0
  -2  -5  -1 103.083 6.02383   0
   2   5   1 106.146 6.24764   0
   2   5   1 89.0529 6.22846   0
   2   5   1 97.3212 6.04301   0
  -2  -5  -2 118.733 6.85012   0
  -2  -5  -2 114.029 6.78863   0
   2   5   2 109.989 6.80707   0
   2   5   2 114.816 7.01614   0
   2   5   2 108.077 7.12683   0
  -2  -5  -3 77.4322 4.54701   0
  -2  -5  -3 78.6644 4.59329   0
   2   5   3  70.739 4.74949   0
   2   5   3 74.4703 4.54122   0
   2   5   3  73.753 4.89411   0
  -2  -5  -4 70.3513 4.05266   0
  -2  -5  -4 64.8264 4.38993   0
   2   5   4 67.6906 4.27751   0
   2   5   4 62.5351 3.97771   0
   2   5   4 63.3917 4.21326   0
  -2  -4   5 98.2287 5.86186   0
  -2  -4   5 91.1084 5.68665   0
   2   4  -5 96.8694 6.03177   0
   2   4  -5 93.6465 6.01053   0
  -2  -4   4 17.9521 1.11503   0
  -2  -4   4 18.2924  1.3087   0
   2   4  -4 18.4978 1.43194   0
   2   4  -4 19.1727 1.30283   0
   2   4  -4 14.6128 1.19133   0
  -2  -4   3 181.536 11.5432   0
  -2  -4   3 196.516  11.665   0
  -2  -4   3 193.791  11.556   0
   2   4  -3 197.882 11.5817   0
   2   4  -3 194.329 11.7997   0
   2   4  -3 198.908 11.6907   0
  -2  -4   2 15.8994 1.04021   0
  -2  -4   2 17.2427 1.15043   0
  -2  -4   2 16.0441 1.01266   0
   2   4  -2 17.8834 1.19177   0
   2   4  -2  16.237 1.26065   0
   2   4  -2 15.9132 1.06777   0
  -2  -4   1 278.678 17.4313   0
  -2  -4   1 291.997 17.5035   0
   2   4  -1 306.455 17.5829   0
   2   4  -1 307.011 17.6406   0
   2   4  -1 280.005  17.453   0
  -2  -4   0 10.0898 0.65261   0
  -2  -4   0 9.78919 0.70394   0
   2   4   0 9.51788 0.67461   0
   2   4   0  8.8726 0.86526   0
   2   4   0 11.2191 0.89459   0
  -2  -4  -1 275.518 16.5728   0
  -2  -4  -1 284.507 16.5295   0
   2   4   1 273.721 16.5511   0
   2   4   1 257.956 16.8036   0
   2   4   1 295.445 16.7459   0
  -2  -4  -2  16.237 1.06777   0
  -2  -4  -2 17.3047 1.49487   0
  -2  -4  -2 15.9821 1.12288   0
   2   4   2 19.8811 1.12288   0
   2   4   2 16.2438 1.30199   0
   2   4   2 15.7203 1.39154   0
  -2  -4  -3 195.561 11.8766   0
  -2  -4  -3 201.428 11.6137   0
  -2  -4  -3  200.30 11.5624   0
   2   4   3 196.048 11.7356   0
   2   4   3 194.374 11.5624   0
   2   4   3 173.975 11.7676   0
  -2  -4  -4 20.4697  1.3087   0
  -2  -4  -4 20.3171 1.60213   0
   2   4   4 17.4004 1.49649   0
   2   4   4 19.3194 1.24414   0
   2   4   4 18.9086 1.40847   0
  -2  -4  -5 97.8942 6.25478   0
  -2  -4  -5 105.248 5.99992   0
   2   4   5 84.4714 6.17513   0
   2   4   5 105.131 5.95213   0
   2   4   5 100.007 6.07956   0
  -2  -3   5 1.67902 0.36995   0
  -2  -3   5  1.3489 0.21059   0
  -2  -3   5 0.96757 0.17075   0
   2   3  -5 2.01482 0.58054   0
   2   3  -5 1.49119 0.50086   0
  -2  -3   4 174.317 11.1047   0
  -2  -3   4 189.143 11.2255   0
   2   3  -4 196.641 11.2573   0
   2   3  -4 176.403 11.1238   0
   2   3  -4 194.994 11.3845   0
  -2  -3   3 8.55435 0.58389   0
  -2  -3   3  8.4629 0.69645   0
   2   3  -3 9.63068 0.73866   0
   2   3  -3 8.97644 0.83011   0
   2   3  -3 8.84981 0.60499   0
  -2  -3   2 453.752 25.6148   0
   2   3  -2 407.127 25.7141   0
   2   3  -2 435.971 25.5614   0
   2   3  -2 421.648 25.6683   0
  -2  -3   1 39.5066 2.41022   0
  -2  -3   1 37.2495 2.37797   0
   2   3  -1 41.3284 2.39409   0
   2   3  -1 39.4663 2.40216   0
   2   3  -1 39.0632 2.54725   0
   2   3  -1 38.8859 2.52307   0
   2   3   0 686.398 39.0807   0
   2   3   0 622.999 38.9246   0
  -2  -3  -1 36.9352 2.34573   0
  -2  -3  -1 38.6844 2.30542   0
   2   3   1 43.6902 2.35379   0
   2   3   1 37.4027 2.49889   0
   2   3   1 33.9365 2.33767   0
   2   3   1 37.6365 2.62786   0
  -2  -3  -2  465.93 25.6377   0
  -2  -3  -2 424.091 25.8897   0
  -2  -3  -2 416.495 25.6835   0
   2   3   2 394.758 25.8439   0
   2   3   2 429.115 25.7751   0
   2   3   2  455.86 25.6453   0
  -2  -3  -3 9.92614 0.68238   0
  -2  -3  -3 9.16638 0.61906   0
  -2  -3  -3 8.55435 0.85121   0
   2   3   3 7.40064 0.86528   0
   2   3   3 8.73022 0.60499   0
   2   3   3 8.84981  0.6261   0
   2   3   3 8.69505 0.71052   0
  -2  -3  -4 186.039 12.0269   0
  -2  -3  -4  209.80 11.8743   0
   2   3   4 197.671 11.8934   0
   2   3   4 194.332 11.8043   0
   2   3   4 200.184 11.8234   0
  -2  -3  -5  1.5538 0.30165   0
  -2  -3  -5 2.12296 0.57485   0
   2   3   5 1.94083 0.37564   0
   2   3   5 1.49119 0.24474   0
  -2  -2   6 33.5331 2.20759   0
  -2  -2   6 31.6121 2.08023   0
   2   2  -6 35.9742 2.43048   0
   2   2  -6 33.7932 2.58968   0
  -2  -2   5 82.6263 5.24039   0
  -2  -2   5 84.4412 5.34256   0
   2   2  -5 91.4725 5.54087   0
   2   2  -5 90.3487 5.60097   0
  -2  -2   4 98.1846 5.83859   0
  -2  -2   4 92.4138 5.73687   0
   2   2  -4 84.9071 5.75043   0
   2   2  -4 102.477 6.02168   0
   2   2  -4 101.012 6.02846   0
  -2  -2   3 237.527 14.3127   0
  -2  -2   3 226.275 14.2369   0
   2   2  -3 243.255 14.3582   0
   2   2  -3 239.603 14.2369   0
   2   2  -3 248.476 14.4415   0
  -2  -2   2 177.601 11.8268   0
  -2  -2   2 188.007 11.8185   0
  -2  -2   2 211.811 11.8683   0
   2   2  -2 199.361 11.8019   0
   2   2  -2 208.289 11.9597   0
   2   2  -2 203.721 11.9098   0
  -2  -2   1 425.613 27.1057   0
   2   2  -1 485.051 27.1852   0
  -2  -2   0  248.18 15.6883   0
  -2  -2   0 266.177 15.6612   0
  -2  -2   0 272.736 15.6973   0
  -2  -2   0 263.065 15.6973   0
   2   2   0 267.116 15.8056   0
  -2  -2  -1 479.842  30.037   0
   2   2   1 529.533 29.9929   0
   2   2   1 497.589  30.037   0
  -2  -2  -2 207.043 12.7736   0
  -2  -2  -2 242.623  12.757   0
  -2  -2  -2 198.547 12.8815   0
  -2  -2  -2 218.314 12.7154   0
   2   2   2 213.995 12.7321   0
   2   2   2 203.314 12.7902   0
   2   2   2 211.296 12.7321   0
  -2  -2  -3 246.672 14.4036   0
  -2  -2  -3 230.102 14.5552   0
  -2  -2  -3 255.727 14.4642   0
   2   2   3 225.503 14.4415   0
   2   2   3 255.454 14.4339   0
   2   2   3 244.657 14.4036   0
   2   2   3 233.163 14.3733   0
  -2  -2  -4 107.888 6.30649   0
  -2  -2  -4 98.3202 6.42177   0
   2   2   4 108.228 6.25224   0
   2   2   4 104.152 6.27937   0
   2   2   4 100.904 6.29293   0
  -2  -2  -5 96.1901 5.76323   0
  -2  -2  -5 87.1696 5.57092   0
   2   2   5 94.3992 5.59496   0
   2   2   5 89.7057 5.57693   0
   2   2   5 91.3463 5.53486   0
  -2  -2  -6 36.4412 2.30311   0
  -2  -2  -6 37.5291 2.49416   0
   2   2   6 34.3928 2.32434   0
   2   2   6 36.5261 2.32965   0
   2   2   6 36.5474 2.26066   0
  -2  -1   6 14.1038 1.07062   0
  -2  -1   6 13.9181 0.96684   0
   2   1  -6 13.9727 1.58408   0
   2   1  -6 16.0866 1.36559   0
  -2  -1   5 151.323 9.17392   0
  -2  -1   5 149.358 9.08685   0
   2   1  -5 164.092 9.37295   0
   2   1  -5 139.587 9.08063   0
   2   1  -5 155.217  9.4538   0
  -2  -1   4 51.3358 3.16608   0
  -2  -1   4 49.3853 3.08835   0
   2   1  -4 46.9754 3.10248   0
   2   1  -4 54.4665 3.34983   0
   2   1  -4 52.4383  3.3781   0
  -2  -1   3 383.358 22.8833   0
   2   1  -3 393.121 23.0424   0
   2   1  -3 338.204 22.8037   0
   2   1  -3 401.547 23.0185   0
   2   1  -3 392.285 22.8753   0
   2   1  -3 393.153 22.9151   0
  -2  -1   2 187.307 11.0893   0
  -2  -1   2 180.599 11.0366   0
   2   1  -2 182.741 11.0454   0
   2   1  -2  192.03 11.1596   0
   2   1  -2 187.834 11.1157   0
   2   1  -2 181.169 11.0718   0
   2   1  -2 184.664 11.0103   0
  -2  -1   0  301.26 15.9129   0
  -2  -1   0  244.49 15.9033   0
   2   1   0  296.01 15.9225   0
   2   1   0 248.435 15.9321   0
   2   1   0 240.728 15.9897   0
   2   1   0 266.171 15.9801   0
   2   1   1 555.864 33.2457   0
   2   1   1 559.568 33.1613   0
  -2  -1  -2 174.865 10.8259   0
  -2  -1  -2 186.894 10.9137   0
  -2  -1  -2 173.276 10.9488   0
  -2  -1  -2 194.383 10.8874   0
   2   1   2 182.443 10.8084   0
   2   1   2 181.854 10.8435   0
   2   1   2 175.506 10.8786   0
   2   1   2 182.864 10.8786   0
   2   1   2 186.279 10.8523   0
  -2  -1  -3 412.718 23.5755   0
  -2  -1  -3 381.178 23.6789   0
  -2  -1  -3 387.997 23.6232   0
   2   1   3 399.407 23.5596   0
   2   1   3  379.77 23.5834   0
   2   1   3 414.198 23.6073   0
  -2  -1  -4 50.5231 3.32156   0
  -2  -1  -4 56.3676  3.4417   0
   2   1   4 54.0142 3.30743   0
   2   1   4 54.1839 3.27209   0
   2   1   4 53.7245 3.32156   0
  -2  -1  -5 165.883 9.87052   0
  -2  -1  -5 159.931 9.74613   0
   2   1   5 161.548 9.73991   0
   2   1   5 159.819 9.75235   0
   2   1   5 162.189 9.69637   0
  -2  -1  -6 15.3984 1.23449   0
  -2  -1  -6 15.5458 1.08154   0
   2   1   6 14.9723 1.09793   0
   2   1   6  14.295 1.01053   0
   2   1   6 15.2946 1.07062   0
  -2   0   6  135.76 8.47365   0
  -2   0   6 137.647 8.56191   0
   2   0  -6 150.777 8.76603   0
  -2   0   5 0.26434 0.23287   0
  -2   0   5 0.02518 0.13217   0
   2   0  -5 0.30211 0.13847   0
   2   0  -5 0.23917 0.42169   0
  -2   0   4 353.007  20.058   0
  -2   0   4 344.685 20.1297   0
   2   0  -4 306.927 20.3304   0
   2   0  -4 324.849 20.0436   0
   2   0  -4 335.745 20.1297   0
   2   0  -4 354.986 20.2945   0
  -2   0   3 0.81737 0.21041   0
   2   0  -3 0.25088 0.12948   0
   2   0  -3 0.43701 0.13758   0
   2   0  -3 0.08902 0.34799   0
   2   0  -3 0.16995 0.25088   0
   2   0  -3 0.54221 0.12139   0
   2   0  -2 470.894 29.1237   0
   2   0  -2 477.931 29.1147   0
   2   0  -2 514.674  29.061   0
  -2   0   1 0.44059 0.11493   0
  -2   0   1 0.69919  0.0862   0
   2   0  -1  0.6513 0.05747   0
  -2   0   0 275.293 19.3593   0
  -2   0   0 350.286 19.3397   0
  -2   0   0 309.015 19.3495   0
   2   0   0 373.742 19.3886   0
   2   0   0 338.132 19.3495   0
   2   0   0 322.166 19.3788   0
   2   0   0 302.846 19.4375   0
  -2   0  -1 0.42143 0.11493   0
  -2   0  -1 0.45016 0.16282   0
  -2   0  -1 0.26818  0.0862   0
  -2   0  -1 0.07662 0.13409   0
   2   0   1 0.28734 0.05747   0
   2   0   1 0.35438 0.11493   0
   2   0   1  0.6513  0.1724   0
   2   0   1 0.10536 0.07662   0
   2   0   1 0.21072 0.05747   0
  -2   0  -2  536.94 31.7379   0
  -2   0  -2 524.352 31.6305   0
  -2   0  -3 0.31562  0.2266   0
  -2   0  -3  0.2266 0.30752   0
  -2   0  -3 0.27515 0.18613   0
  -2   0  -3 0.45319 0.23469   0
   2   0   3 0.07283 0.15376   0
  -2   0  -4  340.95 21.0903   0
  -2   0  -4 358.491 21.1548   0
   2   0   4 352.369 21.0114   0
   2   0   4 359.215 21.0831   0
  -2   0  -5 0.68603 0.32728   0
  -2   0  -5-0.04406 0.23287   0
   2   0   5 0.26434 0.14476   0
   2   0   5 0.01888 0.21399   0
  -2   0  -6 142.507 8.45158   0
  -2   0  -6 138.524  8.3247   0
   2   0   6 138.453 8.26401   0
   2   0   6 131.496 8.34124   0
  -2   1   6 16.5782  1.0597   0
  -2   1   6 14.4261 1.12524   0
   2  -1  -6 16.2177 1.38197   0
  -2   1   5 162.867 9.34185   0
   2  -1  -5 152.853 9.31697   0
   2  -1  -5 155.235  9.5782   0
   2  -1  -5 152.604 9.41649   0
  -2   1   4 54.2121 3.20849   0
  -2   1   4 52.8835 3.26502   0
   2  -1  -4 52.4877 3.19435   0
   2  -1  -4 49.4983 3.27916   0
   2  -1  -4 54.4241 3.44877   0
  -2   1   3  410.92 22.8992   0
  -2   1   3 366.721 22.8833   0
  -2   1   3 324.543 22.8992   0
  -2   1   3 406.528 22.9628   0
   2  -1  -3 414.023 23.1299   0
   2  -1  -3 379.754 22.9708   0
   2  -1  -3 391.418 22.8912   0
  -2   1   2 195.815  10.422   0
  -2   1   2 180.783 10.3167   0
  -2   1   2 153.231 10.3693   0
  -2   1   2 170.616 10.4132   0
  -2   1   2 184.172 10.3781   0
   2  -1  -2  176.49  10.343   0
   2  -1  -2 167.832  10.422   0
   2  -1  -2 172.872  10.343   0
   2  -1  -2 157.366 10.4659   0
   2  -1  -2 176.753 10.4132   0
  -2   1   1 600.392 33.5458   0
  -2   1   1 527.148  33.452   0
   2  -1  -1 562.082  33.527   0
  -2   1   0  282.42 15.4426   0
  -2   1   0 218.317  15.433   0
   2  -1   0 265.547 15.5674   0
   2  -1   0 278.543 15.6154   0
   2  -1   0 248.943 15.4234   0
   2  -1   1 527.805 31.4357   0
  -2   1  -2 186.077 10.8698   0
  -2   1  -2 188.185 10.7732   0
  -2   1  -2 171.827 10.8259   0
  -2   1  -2 177.157 10.7293   0
   2  -1   2 178.342 10.7996   0
   2  -1   2 179.001 10.7118   0
   2  -1   2 180.836 10.7381   0
  -2   1  -3 369.179 23.6869   0
  -2   1  -3 397.672  23.671   0
  -2   1  -3 398.706 23.7744   0
   2  -1   3 407.276 23.5755   0
   2  -1   3 408.358  23.663   0
  -2   1  -4 52.8058 3.45584   0
  -2   1  -4 57.5125 3.59718   0
   2  -1   4  55.251 3.40637   0
   2  -1   4 52.7704 3.30743   0
   2  -1   4 54.4524 3.25089   0
  -2   1  -5 162.892 9.83942   0
  -2   1  -5 155.546 9.60308   0
  -2   1  -5 160.534 9.67771   0
   2  -1   5 158.805 9.59064   0
   2  -1   5 155.764 9.49734   0
  -2   1  -6 15.4912  1.2181   0
  -2   1  -6 14.0874 1.11978   0
   2  -1   6 14.7101 1.10886   0
   2  -1   6 15.2017 0.99415   0
  -2   2   6 34.9447 2.35087   0
  -2   2   6 37.6618  2.3668   0
  -2   2   6 37.8634 2.28719   0
   2  -2  -6 35.7673  2.6109   0
  -2   2   5 93.8643 5.34857   0
  -2   2   5 79.3631 5.39063   0
  -2   2   5 91.6528 5.40265   0
   2  -2  -5 86.0097 5.32453   0
   2  -2  -5 95.0362 5.66107   0
   2  -2  -5 85.8535 5.42669   0
  -2   2   4 100.877  6.1234   0
  -2   2   4 104.077 6.06237   0
   2  -2  -4 95.8994 6.15052   0
   2  -2  -4  104.05 6.35396   0
   2  -2  -4   99.69 6.05559   0
  -2   2   3 242.058 14.2066   0
  -2   2   3 251.976 14.1687   0
  -2   2   3 242.937 14.1536   0
  -2   2   3 244.467 14.1308   0
   2  -2  -3 230.223 14.2445   0
   2  -2  -3 220.153 14.3506   0
   2  -2  -3 223.154 14.1536   0
   2  -2  -3 244.687 14.2218   0
  -2   2   2 195.748 12.1673   0
  -2   2   2 218.339 12.0842   0
  -2   2   2 201.404 12.0842   0
  -2   2   2 186.554 12.1008   0
  -2   2   2 207.517 12.0676   0
  -2   2   2 223.421 12.1424   0
   2  -2  -2 182.842 12.0759   0
   2  -2  -2 197.633  12.267   0
   2  -2  -2  209.56 12.1092   0
   2  -2  -2 204.809 12.1673   0
  -2   2   1 161.999 9.97703   0
  -2   2   0 227.782 16.0221   0
  -2   2   0 280.368  15.977   0
  -2   2   0 280.386 15.9048   0
  -2   2   0 289.083 16.0401   0
   2  -2   0  236.84  15.995   0
   2  -2   0 287.288 15.9228   0
   2  -2   0 260.106 16.0401   0
   2  -2   0 278.997 15.9228   0
   2  -2   1 493.686 29.3837   0
  -2   2  -2 207.517 12.3251   0
  -2   2  -2 207.376 12.4414   0
   2  -2   2  208.97 12.3998   0
   2  -2   2 207.866 12.3002   0
   2  -2   2 201.529 12.2919   0
  -2   2  -3 231.034  14.396   0
  -2   2  -3 241.793 14.5855   0
  -2   2  -3 239.747 14.4339   0
   2  -2   3 241.975 14.5021   0
   2  -2   3 249.605 14.4036   0
   2  -2   3 246.172 14.3733   0
  -2   2  -4 96.9708 6.38108   0
  -2   2  -4 110.947 6.48958   0
  -2   2  -4 98.1304 6.19799   0
  -2   2  -4 103.677 6.30649   0
   2  -2   4 107.936 6.18443   0
   2  -2   4 98.6525 6.21834   0
   2  -2   4 109.869 6.35396   0
  -2   2  -5 94.5434 5.82333   0
  -2   2  -5 93.2093 5.69111   0
   2  -2   5 88.4376 5.61299   0
   2  -2   5 89.7477 5.50482   0
  -2   2  -6 34.5732 2.50477   0
  -2   2  -6 32.5302 2.23943   0
  -2   2  -6 35.5285 2.32965   0
   2  -2   6 32.5938 2.10677   0
   2  -2   6 34.3928 2.22882   0
  -2   3   5 1.63348 0.24474   0
  -2   3   5 1.43997 0.57485   0
  -2   3   5 1.72455 0.36995   0
  -2   3   5 1.82131 0.34719   0
   2  -3  -5 1.50258 0.25043   0
   2  -3  -5 1.80423 0.64884   0
   2  -3  -5   1.827 0.31873   0
  -2   3   4 192.634 11.3718   0
  -2   3   4 178.642 11.4291   0
  -2   3   4 200.063 11.3019   0
  -2   3   4 197.926 11.3527   0
   2  -3  -4 175.945 11.5881   0
   2  -3  -4 193.588   11.41   0
   2  -3  -4 187.457 11.3019   0
   2  -3  -4 186.726 11.3909   0
  -2   3   3 9.26487  0.6472   0
  -2   3   3 8.97644 0.59093   0
  -2   3   3 8.23075 0.66127   0
  -2   3   3 8.95533 0.58389   0
  -2   3   3 8.47697 0.71755   0
  -2   3   3 9.01865 0.61203   0
   2  -3  -3  8.1815 0.59796   0
   2  -3  -3 9.05382 0.70348   0
   2  -3  -3 7.66796 0.90749   0
  -2   3   2 459.089 26.2943   0
  -2   3   2 437.903 26.2714   0
  -2   3   2 506.669 26.2638   0
  -2   3   2 449.103 26.1874   0
  -2   3   2 435.391  26.218   0
   2  -3  -2 379.878 26.2027   0
   2  -3  -2 463.624  26.218   0
   2  -3  -2  399.53  26.447   0
   2  -3  -2 433.795 26.2867   0
  -2   3   1 34.7345 2.45858   0
  -2   3   1 35.4358 2.31349   0
  -2   3   1 39.0149 2.32155   0
  -2   3   1 40.6835 2.41022   0
  -2   3   1 38.9101  2.2893   0
  -2   3   1 40.9011 2.34573   0
   2  -3  -1 36.8062 2.32961   0
   2  -3  -1 37.8299 2.38603   0
   2  -3  -1 38.8214 2.32155   0
   2  -3   0 617.955 37.9963   0
   2  -3   0 608.877  38.062   0
   2  -3   0 691.491 38.0127   0
  -2   3  -1 34.9925 2.33767   0
  -2   3  -1 38.1201 2.33767   0
  -2   3  -1 39.5147  2.4344   0
   2  -3   1 39.0955 2.32155   0
   2  -3   1 40.3772 2.51501   0
  -2   3  -2 388.261 25.6377   0
  -2   3  -2 447.385 25.7675   0
  -2   3  -2 429.405 25.6301   0
   2  -3   2 452.164  25.737   0
   2  -3   2 436.246 25.5995   0
  -2   3  -3  10.292  0.6472   0
  -2   3  -3 9.29301 0.81604   0
   2  -3   3 8.70208 0.73866   0
   2  -3   3 8.65284 0.59093   0
   2  -3   3 8.75132 0.61203   0
  -2   3  -4 177.033 11.4799   0
  -2   3  -4 201.767 11.7216   0
  -2   3  -4 189.034 11.5308   0
  -2   3  -4 185.644  11.658   0
   2  -3   4  203.37 11.4863   0
   2  -3   4 194.326 11.4545   0
   2  -3   4 195.757 11.6199   0
  -2   3  -5 1.24076 0.39841   0
  -2   3  -5 1.91806 0.52363   0
   2  -3   5 1.68471 0.39272   0
   2  -3   5 1.32045 0.22766   0
  -2   4   5 104.521 5.98399   0
  -2   4   5 102.933 6.12735   0
   2  -4  -5 89.5315 6.35566   0
   2  -4  -5 99.5136 5.98399   0
  -2   4   4 18.6035 1.20893   0
  -2   4   4 18.4978 1.33217   0
  -2   4   4 18.8734 1.37325   0
   2  -4  -4 18.8617 1.22067   0
   2  -4  -4 19.7361  1.3263   0
   2  -4  -4 17.6586 1.63147   0
   2  -4  -4 19.8124 1.36152   0
  -2   4   3 210.156  11.774   0
  -2   4   3 192.887 11.8382   0
  -2   4   3 201.537 11.7548   0
  -2   4   3 190.725 11.8574   0
  -2   4   3 195.432 11.7227   0
  -2   4   3 201.935 11.7356   0
   2  -4  -3 200.345 11.8318   0
   2  -4  -3 175.206 12.0434   0
   2  -4  -3  185.80 11.7484   0
   2  -4  -3  212.08 11.7805   0
  -2   4   2 16.4092 1.13666   0
  -2   4   2 16.7329 1.06777   0
  -2   4   2 15.2036 1.00577   0
  -2   4   2 18.1589 1.08843   0
  -2   4   2 16.9672 1.34332   0
  -2   4   2 16.6503 1.04021   0
   2  -4  -2 15.8994 1.05399   0
   2  -4  -2 15.8718 1.05399   0
   2  -4  -2 12.9992 1.42599   0
   2  -4  -2 16.5676  1.1091   0
  -2   4   1 283.108 16.7098   0
  -2   4   1 305.128 16.8181   0
  -2   4   1 260.381  16.782   0
   2  -4  -1 281.975 16.7026   0
   2  -4  -1 282.401 16.7243   0
   2  -4  -1 269.103 16.7387   0
  -2   4   0 9.83319  0.7626   0
  -2   4   0 10.1412 0.67461   0
  -2   4   0 11.1824 0.69661   0
   2  -4   0 9.20257 0.65261   0
   2  -4   0 9.22457 0.68194   0
  -2   4  -1  266.78 16.0316   0
  -2   4  -1 259.948 16.0389   0
  -2   4  -1 281.881 16.1471   0
   2  -4   1 247.964 16.0533   0
   2  -4   1 279.637 16.0172   0
   2  -4   1 277.769 16.2914   0
  -2   4  -2 15.8925 1.06777   0
  -2   4  -2 15.3414 1.08154   0
  -2   4  -2 17.1325 1.21932   0
   2  -4   2 17.6147 1.04021   0
   2  -4   2 16.5883  1.2331   0
  -2   4  -3 194.272 12.0498   0
  -2   4  -3 201.281 12.2165   0
   2  -4   3 202.891 12.0113   0
   2  -4   3 207.905 12.1909   0
  -2   4  -4 17.5765 1.23241   0
  -2   4  -4  19.607 1.43781   0
  -2   4  -4 17.2889 1.19133   0
   2  -4   4 19.3899 1.15612   0
   2  -4   4 18.5859 1.36738   0
  -2   4  -5   95.25 6.04239   0
  -2   4  -5  98.234 6.13266   0
   2  -4   5 98.5579 6.03177   0
   2  -5  -4 71.9627 4.17043   0
   2  -5  -4 60.1421 4.47023   0
   2  -5  -4 69.1682 4.09548   0
  -2   5   3 77.8487 4.80733   0
  -2   5   3 83.1247  4.7032   0
  -2   5   3  79.538 4.72634   0
   2  -5  -3 74.7422 4.73213   0
   2  -5  -3 76.1769 4.76684   0
   2  -5  -3 75.7951 4.72056   0
  -2   5   2  121.42 6.88701   0
  -2   5   2  120.24  6.9977   0
  -2   5   2 112.732 6.90546   0
   2  -5  -2  106.65 6.91161   0
   2  -5  -2 112.326 6.89931   0
   2  -5  -2  114.57 6.88701   0
  -2   5   1 106.888 6.38832   0
  -2   5   1 103.108 6.31159   0
  -2   5   1  105.59 6.28601   0
   2  -5  -1 102.347 6.27322   0
  -2   5   0 139.295 7.94102   0
  -2   5   0 126.985 7.81138   0
   2  -5   0 124.373 7.79193   0
  -2   5  -1 106.229  6.1709   0
  -2   5  -1 95.0319 6.03022   0
   2  -5   1 99.5402 6.01104   0
  -2   5  -2  113.39 6.90546   0
  -2   5  -2 117.356 7.05919   0
   2  -5   2 115.099 6.87471   0
   2  -5   2 113.439 7.16987   0
  -2   5  -3 77.0388 4.68006   0
  -2   5  -3 77.9587  4.8594   0
   2  -5   3 78.6586 4.64535   0
   2  -5   3  74.991 4.89989   0
  -2   5  -4 70.0247 4.28286   0
  -2   5  -4 68.0065 4.06336   0
  -2   5  -4  63.488 4.04195   0
   2  -5   4 68.0814 4.25609   0
   2  -5   4 63.0009 3.99912   0
  -2   6   2 105.599 6.41236   0
  -2   6   2 110.743 6.39596   0
  -2   6   2 106.463 6.49436   0
   2  -6  -2 101.658 6.39049   0
  -2   6   1 10.2225 0.88154   0
  -2   6   1  11.008 0.80808   0
  -2   6   1  12.076 0.76852   0
   2  -6  -1  10.166 0.75157   0
  -2   6   0  125.44 7.47061   0
  -2   6   0 121.828 7.49919   0
  -2   6   0 132.362 7.60779   0
   2  -6   0 117.363 7.44775   0
  -2   6  -1 10.6802 0.76287   0
  -2   6  -1 11.2792   0.955   0
   2  -6   1 10.8102 0.74592   0
  -2   6  -2  103.68  6.3085   0
  -2   6  -2 103.893 6.33583   0
  -2   6  -2  110.24 6.48889   0
   2  -6   2 100.684  6.2757   0
  -3  -6   2 18.8265 1.20204   0
   3   6  -2 18.3338 1.23453   0
   3   6  -2 18.8915 1.40238   0
   3   6  -2 18.4367 1.47277   0
  -3  -6   1 121.954 7.24486   0
   3   6  -1 120.528 7.47983   0
   3   6  -1 116.762 7.26164   0
   3   6  -1 123.537  7.4015   0
  -3  -6   0 39.3952 2.36496   0
   3   6   0 37.6752 2.38193   0
   3   6   0 38.2863 2.60258   0
   3   6   0 37.9808 2.56864   0
  -3  -6  -1 117.937 7.23367   0
  -3  -6  -1 133.026 7.32318   0
   3   6   1  124.97 7.49661   0
   3   6   1 113.462 7.44626   0
   3   6   1 113.428 7.25045   0
  -3  -6  -2 21.7667 1.32657   0
  -3  -6  -2 18.5017 1.24536   0
   3   6   2 18.8103  1.4836   0
   3   6   2  18.258 1.23994   0
   3   6   2 17.1697 1.62979   0
  -3  -5   4 42.2677 2.71566   0
   3   5  -4 48.1181  2.9066   0
   3   5  -4 43.4983  3.0392   0
  -3  -5   3 81.7843 5.16412   0
   3   5  -3 89.0496 5.33588   0
   3   5  -3 85.9465 5.19847   0
   3   5  -3 86.8511 5.45038   0
  -3  -5   2 107.805 6.87119   0
   3   5  -2 120.453 7.04753   0
   3   5  -2 112.894 7.11442   0
   3   5  -2 117.339  6.9016   0
  -3  -5   1 111.795 6.58436   0
   3   5  -1 105.887 6.60332   0
   3   5  -1 108.933 6.80552   0
   3   5  -1 112.503 6.75497   0
  -3  -5   0 161.777 9.01041   0
  -3  -5   0  154.74 8.93997   0
   3   5   0 145.326 9.17051   0
   3   5   0 139.639 8.95918   0
   3   5   0 145.953 9.13208   0
  -3  -5  -1  107.29 6.30632   0
  -3  -5  -1 97.9502 6.36319   0
   3   5   1 100.364  6.5654   0
   3   5   1 104.819  6.3316   0
   3   5   1 114.746 6.57804   0
  -3  -5  -2 108.948 6.46987   0
  -3  -5  -2 114.494 6.53676   0
   3   5   2 105.743 6.81039   0
   3   5   2 106.613 6.49419   0
   3   5   2 102.952 6.70701   0
  -3  -5  -3 80.9256 4.92366   0
  -3  -5  -3 88.2195 4.99237   0
   3   5   3 82.5859 4.93511   0
   3   5   3 77.7424 5.25572   0
   3   5   3 77.5592 5.16412   0
  -3  -5  -4 46.3518 2.67853   0
  -3  -5  -4 43.5566 3.00738   0
   3   5   4 39.3717 2.84295   0
   3   5   4 42.1192 2.91191   0
   3   5   4 39.9817 2.59367   0
  -3  -4   5  2.8248  0.3314   0
  -3  -4   5 3.34558 0.63124   0
   3   4  -5 3.91895 0.82587   0
  -3  -4   4 118.943 7.14215   0
  -3  -4   4 115.198 7.00279   0
   3   4  -4 121.527 7.17699   0
   3   4  -4 112.201 7.27571   0
  -3  -4   3 19.8018 1.32434   0
  -3  -4   3 18.2683 1.18494   0
  -3  -4   3 18.7816 1.20395   0
   3   4  -3 19.6687 1.38137   0
   3   4  -3 19.1871 1.47642   0
   3   4  -3 18.8259 1.22296   0
  -3  -4   2 292.374 18.0265   0
  -3  -4   2 304.011 18.0945   0
   3   4  -2 303.324 18.2508   0
   3   4  -2 310.699 18.1897   0
   3   4  -2 303.576 18.0469   0
  -3  -4   1 76.0191 4.64537   0
  -3  -4   1 76.2111 4.60269   0
   3   4  -1 79.8748 4.82322   0
   3   4  -1 75.0231 4.62403   0
   3   4  -1 75.6705 4.78054   0
  -3  -4   0 467.668 27.5218   0
  -3  -4   0 451.941 27.5652   0
   3   4   0 482.643 27.7458   0
   3   4   0 468.441 27.5507   0
   3   4   0 418.891 27.7097   0
   3   4   0 486.481 27.5362   0
  -3  -4  -1 78.9429  4.5031   0
  -3  -4  -1  76.702 4.44618   0
   3   4   1  65.832 4.55289   0
   3   4   1 73.9134 4.67383   0
   3   4   1 73.7213 4.74497   0
  -3  -4  -2 297.547 18.0129   0
  -3  -4  -2 295.378 17.7071   0
  -3  -4  -2 299.239 17.6459   0
   3   4   2 312.052 17.6935   0
   3   4   2 280.601 17.8838   0
   3   4   2 293.189 17.9518   0
  -3  -4  -3 18.5788 1.25464   0
  -3  -4  -3 18.8766 1.51444   0
  -3  -4  -3 18.9653  1.1786   0
   3   4   3 15.3471 1.44474   0
   3   4   3 18.9273 1.41939   0
   3   4   3 19.7637 1.19761   0
  -3  -4  -4 113.961 7.13054   0
  -3  -4  -4 125.719  6.9215   0
   3   4   4 100.124 7.08989   0
   3   4   4 117.282 6.85182   0
   3   4   4 112.411 6.99118   0
  -3  -4  -5 4.47655 0.82587   0
  -3  -4  -5 3.51391 0.49447   0
   3   4   5 3.12464  0.6891   0
   3   4   5 3.72432 0.62598   0
   3   4   5 3.30875 0.44713   0
  -3  -3   5 116.508 7.19479   0
  -3  -3   5 122.988 7.32438   0
   3   3  -5 120.137 7.50467   0
   3   3  -5 120.514 7.51594   0
  -3  -3   4 7.30362 0.53426   0
  -3  -3   4 6.91393 0.67254   0
   3   3  -4 7.88816 0.84853   0
   3   3  -4 7.77503 0.72282   0
  -3  -3   3 329.553 19.3283   0
   3   3  -3 311.696 19.2381   0
   3   3  -3 329.317 19.3838   0
   3   3  -3 322.197 19.4532   0
  -3  -3   2 21.5244 1.37581   0
   3   3  -2 21.0206 1.48859   0
   3   3  -2 21.2687 1.30815   0
   3   3  -2 19.6523 1.43596   0
  -3  -3   1 422.572 27.8781   0
   3   3  -1 431.429  28.005   0
   3   3  -1 491.189 28.0367   0
   3   3  -1 527.583 27.8543   0
  -3  -3   0 45.6198 2.57661   0
  -3  -3   0  44.594   2.617   0
  -3  -3   0 44.7394 2.63315   0
   3   3   0 39.1661 2.64931   0
   3   3   0   38.10  2.7947   0
   3   3   0 42.6312 2.77047   0
  -3  -3  -1 447.866 26.9029   0
  -3  -3  -1 481.246 26.8474   0
   3   3   1 474.578 26.9346   0
   3   3   1 428.471 27.1566   0
   3   3   1 425.768 27.0535   0
  -3  -3  -2 21.9454 1.59384   0
  -3  -3  -2  21.592 1.33822   0
  -3  -3  -2  21.983  1.4134   0
   3   3   2 20.6222 1.51114   0
   3   3   2 22.3213 1.37581   0
  -3  -3  -3 312.161 19.3006   0
  -3  -3  -3 323.515 19.5365   0
  -3  -3  -3 338.187 19.3908   0
   3   3   3 289.404 19.5851   0
   3   3   3 328.637 19.4255   0
   3   3   3 328.359 19.3214   0
   3   3   3 349.874 19.3214   0
  -3  -3  -4 7.31619 0.82339   0
  -3  -3  -4  9.4658 0.69139   0
   3   3   4 7.83788 0.62854   0
   3   3   4  7.6996 0.57826   0
   3   3   4 6.26025 0.65368   0
  -3  -3  -5 135.174 8.24274   0
  -3  -3  -5 138.876 8.42867   0
   3   3   5 137.056 8.19203   0
   3   3   5  134.38 8.27655   0
  -3  -2   6 60.8436 3.71171   0
  -3  -2   6 61.4167 3.83789   0
   3   2  -6 58.2465 4.14807   0
   3   2  -6 63.4197 4.04292   0
  -3  -2   5  58.084 3.53069   0
  -3  -2   5 53.7509 3.41181   0
   3   2  -5 53.9054  3.7625   0
   3   2  -5 59.2609 3.74467   0
  -3  -2   4 147.277 9.29012   0
  -3  -2   4 155.228 9.38383   0
   3   2  -4 153.515 9.57793   0
   3   2  -4 168.427 9.44407   0
   3   2  -4 152.879 9.55116   0
  -3  -2   3 157.956 9.94732   0
  -3  -2   3 169.373 10.0219   0
   3   2  -3 152.799 9.96971   0
   3   2  -3 168.306 9.92494   0
   3   2  -3 175.955 10.1488   0
   3   2  -3 175.015 10.0742   0
  -3  -2   2 291.734  16.188   0
  -3  -2   2 269.971 16.1553   0
  -3  -2   2 233.701 16.1635   0
   3   2  -2 260.591 16.2614   0
   3   2  -2 275.726 16.2533   0
   3   2  -2 277.873 16.1227   0
   3   2  -2 286.314 16.1472   0
  -3  -2   1 204.979 12.1142   0
  -3  -2   1 212.483 12.1055   0
   3   2  -1 178.211 12.2008   0
   3   2  -1  209.45 12.2181   0
   3   2  -1 219.398 12.0968   0
   3   2  -1 191.504 12.0708   0
  -3  -2   0 357.967 20.5749   0
  -3  -2   0 367.463 20.5926   0
  -3  -2   0  333.80 20.6103   0
   3   2   0 358.897 20.7076   0
   3   2   0 309.464 20.6634   0
  -3  -2  -1 207.535 12.4174   0
  -3  -2  -1  203.41 12.5561   0
  -3  -2  -1 200.221 12.3568   0
  -3  -2  -1 206.833 12.4001   0
   3   2   1 197.449 12.4001   0
   3   2   1 223.341 12.4174   0
   3   2   1 216.018 12.5474   0
  -3  -2  -2 315.212 17.1921   0
  -3  -2  -2 275.612 17.1757   0
  -3  -2  -2 288.722 17.1512   0
  -3  -2  -2 284.534  17.241   0
  -3  -2  -2 275.285 17.3308   0
   3   2   2 286.608 17.2574   0
   3   2   2 286.877 17.1839   0
   3   2   2 295.514 17.1921   0
  -3  -2  -3 169.172 10.4846   0
  -3  -2  -3 183.858 10.4175   0
  -3  -2  -3 170.269  10.313   0
   3   2   3 175.821 10.3428   0
   3   2   3 179.134 10.3652   0
   3   2   3 164.866 10.3279   0
   3   2   3 168.351 10.3951   0
  -3  -2  -4 163.936 9.69841   0
  -3  -2  -4 156.855 9.79211   0
   3   2   4 155.469 9.67833   0
   3   2   4  163.20 9.66494   0
   3   2   4 164.773 9.63148   0
  -3  -2  -5 65.5436 3.97648   0
  -3  -2  -5 59.5224   3.816   0
   3   2   5 61.1451 3.82194   0
   3   2   5  59.885 3.80411   0
   3   2   5 62.7916  3.7625   0
  -3  -2  -6  67.531  4.2427   0
  -3  -2  -6 63.8035 4.08498   0
   3   2   6 66.6057 4.10075   0
   3   2   6 66.0432 4.03767   0
   3   2   6 67.2681 4.11127   0
  -3  -1   6  64.914 4.10109   0
  -3  -1   6 67.4082  4.2147   0
   3   1  -6 67.5651 4.54474   0
   3   1  -6 70.8438 4.43653   0
  -3  -1   5 38.8011 2.42891   0
  -3  -1   5  40.117 2.53345   0
   3   1  -5 36.8518 2.79171   0
   3   1  -5 42.2507 2.75481   0
  -3  -1   4 167.438 9.86446   0
  -3  -1   4  167.87 9.94812   0
  -3  -1   4 155.294 9.82961   0
   3   1  -4 168.128 10.1363   0
   3   1  -4  150.86 9.84355   0
   3   1  -4 175.176 10.1433   0
   3   1  -4 170.331  9.9272   0
  -3  -1   3 144.261 8.36026   0
  -3  -1   3 134.766 8.27415   0
   3   1  -3 146.453  8.4855   0
   3   1  -3 138.602 8.33677   0
   3   1  -3 148.379  8.3994   0
   3   1  -3 138.813 8.51682   0
   3   1  -3 118.758 8.24284   0
   3   1  -2 517.134 30.2503   0
   3   1  -2 495.924 30.1728   0
   3   1  -2 507.456 30.2245   0
  -3  -1   1 229.822 13.6763   0
  -3  -1   1 260.943 13.6855   0
  -3  -1   1 201.146 13.7131   0
   3   1  -1 231.541 13.6855   0
   3   1  -1  228.82 13.6947   0
   3   1  -1 236.725 13.6303   0
   3   1  -1 218.867 13.6947   0
   3   1  -1 224.271 13.7314   0
  -3  -1   0 691.038 46.4327   0
   3   1   0 815.059 46.4139   0
   3   1   0 831.238 46.4609   0
  -3  -1  -1 226.238  14.338   0
  -3  -1  -1 231.835  14.384   0
  -3  -1  -1 216.229  14.338   0
  -3  -1  -1 272.101 14.3289   0
  -3  -1  -1  253.93 14.3197   0
   3   1   1  233.49 14.3656   0
   3   1   1 249.399 14.3197   0
   3   1   1 228.067 14.3197   0
   3   1   1 251.182 14.3472   0
  -3  -1  -2 476.145 29.5005   0
  -3  -1  -2 477.343 29.5264   0
  -3  -1  -2 524.589 29.4919   0
   3   1   2  529.26 29.4661   0
   3   1   2 468.044 29.4574   0
  -3  -1  -3 131.463 8.46985   0
  -3  -1  -3 138.962 8.43071   0
  -3  -1  -3 144.003 8.51682   0
   3   1   3 150.187 8.44636   0
   3   1   3 135.071 8.43071   0
   3   1   3 142.625  8.3994   0
  -3  -1  -4 170.777 10.4849   0
  -3  -1  -4 184.378 10.6383   0
  -3  -1  -4 161.694 10.5407   0
   3   1   4 174.123 10.5128   0
   3   1   4 180.711 10.4779   0
   3   1   4 179.436 10.5337   0
  -3  -1  -5 41.9863 2.65643   0
  -3  -1  -5 43.2223 2.74867   0
   3   1   5  40.572 2.64413   0
   3   1   5 42.6812 2.58264   0
   3   1   5 41.3038 2.62568   0
  -3  -1  -6 68.8744 4.33373   0
  -3  -1  -6 73.4787 4.46358   0
   3   1   6 71.8988 4.32832   0
   3   1   6 69.5832 4.27422   0
   3   1   6 67.8681 4.34455   0
  -3   0   6-0.14751 0.13659   0
  -3   0   6 0.10927 0.27318   0
   3   0  -6 0.26225 0.52996   0
  -3   0   5 151.703 9.16379   0
  -3   0   5 151.473 9.07669   0
   3   0  -5 151.224 9.16379   0
   3   0  -5 151.342 9.33798   0
  -3   0   4 0.35346 0.09897   0
  -3   0   4 0.77055 0.24036   0
  -3   0   4  0.5302 0.13432   0
   3   0  -4-0.01414 0.39588   0
   3   0  -4 0.24743 0.11311   0
   3   0  -4 0.09897 0.16259   0
   3   0  -4 0.02121 0.31812   0
   3   0  -3 530.412 31.0579   0
   3   0  -3  474.48  31.042   0
   3   0  -3 551.727 30.9385   0
  -3   0   2 0.72027 0.15811   0
  -3   0   2 0.68513 0.19324   0
   3   0  -2 0.71148 0.25473   0
   3   0  -2 0.91351 0.09662   0
   3   0  -2  1.3527 0.22838   0
  -3   0   0    0.00 0.18244   0
  -3   0   0 0.11522 0.11522   0
  -3   0   0-0.10562 0.24005   0
  -3   0   0 0.12483 0.12483   0
  -3   0   0 0.25926 0.13443   0
   3   0   0  0.0096 0.17284   0
   3   0   0 0.22085 0.13443   0
   3   0   0 0.30727 0.14403   0
   3   0   1 885.246 52.2692   0
   3   0   1 869.324 52.1941   0
  -3   0  -2 0.33378 0.21081   0
  -3   0  -2 0.30743 0.14054   0
  -3   0  -2 0.23716 0.30743   0
  -3   0  -2 0.02635 0.14054   0
   3   0   2 0.51824 0.15811   0
   3   0   2 0.21959 0.09662   0
   3   0   2 0.26351 0.07027   0
   3   0   2 0.23716 0.09662   0
  -3   0  -3 585.738 34.0825   0
  -3   0  -3 522.285 34.0745   0
  -3   0  -3 591.198 34.2496   0
   3   0   3 585.857 34.0347   0
  -3   0  -4 0.19794 0.21915   0
  -3   0  -4 0.28984 0.21208   0
  -3   0  -4-0.03535 0.23329   0
   3   0   4 0.08483 0.19794   0
  -3   0  -5 148.885 9.08291   0
  -3   0  -5 153.458 9.14512   0
  -3   0  -5 140.742 9.00204   0
   3   0   5  153.57 8.99582   0
   3   0   5 153.806 9.07669   0
  -3   0  -6  0.1803 0.31688   0
  -3   0  -6 0.30049 0.34966   0
   3   0   6 0.26225 0.20761   0
   3   0   6 0.23493 0.15844   0
   3   0   6 0.75396 0.33327   0
  -3   1   6 68.6472 4.37702   0
  -3   1   6 73.8466 4.30668   0
   3  -1  -6  69.502 4.57179   0
  -3   1   5 43.9848  2.4904   0
  -3   1   5 41.4575 2.56419   0
   3  -1  -5 34.6197 2.44736   0
   3  -1  -5 40.2461 2.57649   0
   3  -1  -5 40.9533 2.75481   0
  -3   1   4 180.732 10.5825   0
  -3   1   4 183.207 10.6662   0
  -3   1   4 184.518 10.5477   0
   3  -1  -4 170.945 10.5546   0
   3  -1  -4 170.192 10.8056   0
   3  -1  -4 171.809 10.6731   0
  -3   1   3 147.612 8.31329   0
  -3   1   3 121.247 8.26632   0
   3  -1  -3 145.827 8.46985   0
   3  -1  -3 135.111 8.32112   0
   3  -1  -3 138.218  8.2037   0
  -3   1   2  400.27 25.3206   0
   3  -1  -2 414.645 25.4499   0
   3  -1  -2 462.339 25.4241   0
  -3   1   1 210.319 13.0421   0
  -3   1   1 185.301 13.0329   0
  -3   1   1 217.607 13.0329   0
  -3   1   1 216.707 13.0145   0
  -3   1   1 223.379 13.0237   0
   3  -1  -1 198.554 13.0789   0
   3  -1  -1 236.421 13.1524   0
   3  -1  -1 221.596 13.0421   0
   3  -1  -1 225.622 13.0053   0
   3  -1  -1  242.80 13.0053   0
   3  -1  -1 227.341 13.0421   0
  -3   1   0 672.884 40.7543   0
  -3   1   0 675.667 40.5945   0
   3  -1   0 666.435 40.5945   0
   3  -1   0 741.438  40.839   0
   3  -1   0 653.132 40.7826   0
  -3   1  -1 243.287 13.7314   0
  -3   1  -1 219.547 13.8142   0
  -3   1  -1 229.381 13.7682   0
  -3   1  -1 237.138 13.7498   0
   3  -1   1 243.499 13.8509   0
   3  -1   1 236.789 13.7314   0
   3  -1   1 224.216  13.759   0
   3  -1   1 205.016 13.8325   0
   3  -1   1 240.052  13.759   0
  -3   1  -2 515.117 29.4661   0
  -3   1  -2 507.094 29.5522   0
  -3   1  -2 462.054 29.4747   0
  -3   1  -3 145.287 8.72817   0
  -3   1  -3 131.619 8.50116   0
  -3   1  -3 150.101 8.64989   0
  -3   1  -3 138.398 8.62641   0
   3  -1   3 144.128 8.47768   0
   3  -1   3 142.594 8.52464   0
   3  -1   3 146.469 8.61075   0
  -3   1  -4 170.436 10.4431   0
  -3   1  -4 151.794 10.4082   0
  -3   1  -4 178.306 10.5895   0
   3  -1   4  185.57 10.4291   0
   3  -1   4 176.682 10.3176   0
  -3   1  -5 33.1685 2.49655   0
  -3   1  -5  40.117 2.60109   0
  -3   1  -5 41.3161 2.79786   0
  -3   1  -5 39.4775 2.58879   0
   3  -1   5 41.1931 2.44121   0
   3  -1   5 42.0048 2.55189   0
  -3   1  -6 67.8843 4.28504   0
  -3   1  -6 71.0386 4.34996   0
   3  -1   6 66.7914 4.26881   0
   3  -1   6 69.1179 4.17142   0
  -3   2   6 69.0925 4.12178   0
  -3   2   6 73.4403 4.21116   0
  -3   2   6 63.9087 4.17962   0
   3  -2  -6 63.6931  4.4162   0
  -3   2   5 58.3574 3.67929   0
  -3   2   5 62.6608 3.61985   0
   3  -2  -5 60.4378 3.93488   0
   3  -2  -5 57.7333 3.70901   0
   3  -2  -5 57.3588 3.58418   0
  -3   2   4 164.853 9.45076   0
  -3   2   4 164.665 9.37714   0
   3  -2  -4 149.157 9.65156   0
   3  -2  -4 148.588 9.35036   0
   3  -2  -4 155.436 9.47753   0
  -3   2   3  180.88 10.2384   0
  -3   2   3 178.216 10.1637   0
  -3   2   3 171.985 10.1264   0
  -3   2   3 185.201  10.201   0
   3  -2  -3 168.619 10.2384   0
   3  -2  -3 159.583 10.1488   0
   3  -2  -3 163.724 10.2607   0
   3  -2  -3 152.426 10.3578   0
  -3   2   2 272.249 16.4247   0
  -3   2   2 295.743 16.3921   0
  -3   2   2 269.008 16.4492   0
   3  -2  -2  265.31 16.5798   0
   3  -2  -2 290.167 16.4492   0
   3  -2  -2 279.032 16.5145   0
   3  -2  -2 257.963 16.4002   0
  -3   2   1 206.192 11.7415   0
  -3   2   1 197.553 11.7242   0
  -3   2   1  195.30 11.7415   0
  -3   2   1  202.57 11.7155   0
  -3   2   1 190.958 11.7329   0
   3  -2  -1 193.748 11.7155   0
   3  -2  -1  202.70 11.7329   0
   3  -2  -1 199.944 11.8455   0
   3  -2  -1  181.08 11.8455   0
  -3   2   0 403.268 21.4156   0
  -3   2   0 351.888  21.389   0
  -3   2   0 324.809 21.3802   0
  -3   2   0 345.109 21.4421   0
   3  -2   0 351.729 21.3802   0
   3  -2   0 335.738 21.5572   0
   3  -2   0 399.958 21.3625   0
   3  -2   0 361.233  21.451   0
  -3   2  -1 206.036 12.2788   0
  -3   2  -1 204.511 12.2181   0
  -3   2  -1 204.727 12.1748   0
  -3   2  -1 195.533 12.2008   0
   3  -2   1 202.336 12.1835   0
   3  -2   1 213.913 12.2095   0
   3  -2   1 190.568 12.2181   0
   3  -2   1  220.55 12.3568   0
  -3   2  -2 269.293 16.8982   0
  -3   2  -2 282.951   16.89   0
  -3   2  -2 280.763 17.0043   0
   3  -2   2 291.432  16.988   0
   3  -2   2 279.408 16.8737   0
   3  -2   2 297.596 16.8574   0
  -3   2  -3 161.493 10.0891   0
  -3   2  -3 162.202  10.201   0
  -3   2  -3 175.291 10.1413   0
   3  -2   3 171.313 10.0593   0
   3  -2   3 173.537  10.201   0
   3  -2   3 170.313 10.0891   0
  -3   2  -4 161.265 9.75195   0
  -3   2  -4 151.045 9.49761   0
  -3   2  -4  160.69 9.61809   0
  -3   2  -4 151.366 9.65156   0
   3  -2   4 163.367 9.51769   0
   3  -2   4 161.326 9.47084   0
   3  -2   4 165.268 9.65156   0
  -3   2  -5 59.1599  3.7209   0
  -3   2  -5 61.8762 3.88138   0
  -3   2  -5 53.0436 3.68523   0
   3  -2   5 59.4808 3.56635   0
   3  -2   5 59.3619 3.69712   0
  -3   2  -6 65.1021 4.16384   0
  -3   2  -6 61.3851 3.92726   0
  -3   2  -6 62.5313 3.95881   0
   3  -2   6 61.5534 3.91149   0
   3  -2   6 60.9277 3.78531   0
  -3   3   5 130.994 7.73567   0
  -3   3   5 139.005 7.67933   0
  -3   3   5  133.23 7.76384   0
   3  -3  -5 129.687 7.78638   0
   3  -3  -5 113.477 7.65116   0
   3  -3  -5 120.103 8.02301   0
  -3   3   4 6.58709 0.54054   0
  -3   3   4  6.9705 0.63482   0
  -3   3   4 7.51733 0.62225   0
  -3   3   4 7.44819 0.62854   0
   3  -3  -4 8.41614 0.68511   0
   3  -3  -4 7.17163 0.92395   0
   3  -3  -4 7.08364 0.52169   0
  -3   3   3 355.169 19.6545   0
  -3   3   3 343.836 19.5643   0
  -3   3   3 332.301  19.599   0
  -3   3   3 339.804 19.5782   0
  -3   3   3 309.114 19.6268   0
  -3   3   3 313.174 19.6476   0
   3  -3  -3 335.473 19.6962   0
   3  -3  -3 310.301  19.828   0
   3  -3  -3 297.073 19.5782   0
   3  -3  -3 353.386 19.6476   0
  -3   3   2 20.6372 1.38333   0
  -3   3   2 22.3889 1.31567   0
  -3   3   2 20.7951 1.38333   0
  -3   3   2 23.2385  1.4134   0
  -3   3   2 22.1634 1.30815   0
  -3   3   2 20.9003 1.34574   0
   3  -3  -2  21.186 1.34574   0
   3  -3  -2  18.051 1.55625   0
   3  -3  -2 22.4942 1.43596   0
   3  -3  -2  19.923 1.32319   0
  -3   3   1 435.893 27.1645   0
  -3   3   1  420.32 27.2279   0
  -3   3   1 503.812 27.2121   0
  -3   3   1 440.071 27.1566   0
   3  -3  -1 473.381 27.1487   0
   3  -3  -1 468.338 27.2438   0
   3  -3  -1 453.027 27.1487   0
  -3   3   0 44.1659 2.73816   0
  -3   3   0  45.846  2.7947   0
  -3   3   0 47.6149 2.83508   0
  -3   3   0 45.9752 2.77047   0
   3  -3   0 47.2756 2.73816   0
   3  -3   0 43.2532 2.89162   0
   3  -3   0 44.9979 2.75431   0
  -3   3  -1 482.927 26.7601   0
  -3   3  -1 437.796  26.665   0
  -3   3  -1 398.064 26.6412   0
   3  -3   1 474.182 26.6412   0
  -3   3  -2 21.9078 1.48859   0
  -3   3  -2 21.6898  1.3683   0
  -3   3  -2 21.4717  1.3683   0
   3  -3   2 22.5994 1.50362   0
   3  -3   2 21.2913 1.33822   0
   3  -3   2  21.359 1.33071   0
  -3   3  -3 324.633 19.6059   0
  -3   3  -3 337.416 19.7725   0
  -3   3  -3 309.496 19.5851   0
   3  -3   3  336.84 19.5574   0
   3  -3   3 330.476 19.5712   0
   3  -3   3 334.592  19.717   0
  -3   3  -4 8.24015 0.65368   0
  -3   3  -4 7.39162  0.7731   0
  -3   3  -4 6.90764 0.52797   0
  -3   3  -4 7.80645 0.74168   0
   3  -3   4 7.75617 0.49655   0
   3  -3   4 7.98873 0.73539   0
   3  -3   4 7.10249 0.54683   0
  -3   3  -5 120.886 7.82018   0
  -3   3  -5 130.408 7.94413   0
   3  -3   5 128.802 7.66243   0
   3  -3   5 130.977 7.82018   0
   3  -4  -5 2.67751 0.84166   0
   3  -4  -5 3.18777 0.36296   0
   3  -4  -5 3.90317 0.56812   0
  -3   4   4 114.094 7.13054   0
  -3   4   4 122.543 7.02021   0
   3  -4  -4 106.848 7.33377   0
   3  -4  -4 113.287 7.02021   0
   3  -4  -4 123.426 7.15377   0
   3  -4  -4 121.713 7.12473   0
  -3   4   3 19.4659 1.38771   0
  -3   4   3 19.7511 1.22929   0
  -3   4   3 19.5166 1.22929   0
  -3   4   3 19.9665 1.29266   0
  -3   4   3 18.5788 1.30533   0
  -3   4   3 19.9221 1.26731   0
   3  -4  -3 19.9348  1.3687   0
   3  -4  -3 20.8346 1.30533   0
   3  -4  -3 18.8513  1.2483   0
  -3   4   2 296.364 17.9858   0
  -3   4   2 302.801 17.8362   0
  -3   4   2 289.295 17.8022   0
  -3   4   2 295.351 17.9042   0
  -3   4   2 343.911  17.911   0
  -3   4   2 295.698 17.8634   0
   3  -4  -2 297.492 17.9246   0
   3  -4  -2 311.406 17.8566   0
   3  -4  -2 281.906  17.843   0
   3  -4  -2 280.145 18.1421   0
  -3   4   1 78.9144 4.54578   0
  -3   4   1 69.5027 4.53866   0
  -3   4   1 79.8179 4.59558   0
  -3   4   1 75.4073 4.51732   0
   3  -4  -1 74.5678 4.51732   0
   3  -4  -1 71.2812 4.57423   0
  -3   4   0 494.821 27.0665   0
  -3   4   0 446.188 27.0014   0
  -3   4   0 439.525 26.9508   0
  -3   4   0 463.115 26.9725   0
   3  -4   0 413.817 27.0159   0
   3  -4   0 462.443 26.9653   0
  -3   4  -1 78.1461 4.38216   0
  -3   4  -1  72.206 4.34659   0
  -3   4  -1  76.766  4.4533   0
  -3   4  -1 69.2395 4.32525   0
   3  -4   1 73.1451 4.32525   0
   3  -4   1 66.8208 4.62403   0
   3  -4   1 66.7354  4.4533   0
  -3   4  -2 283.551 17.5439   0
  -3   4  -2 284.706 17.5303   0
  -3   4  -2 302.536 17.6663   0
   3  -4   2  306.03 17.7342   0
   3  -4   2 293.828 17.5031   0
  -3   4  -3 15.6006 1.33701   0
  -3   4  -3 17.6473 1.19127   0
  -3   4  -3 20.4481 1.21662   0
   3  -4   3 19.5293 1.15959   0
   3  -4   3 19.4596 1.40038   0
  -3   4  -4 116.464 7.12473   0
  -3   4  -4 118.908 7.30474   0
  -3   4  -4  110.50 7.08409   0
   3  -4   4 124.157 7.05505   0
   3  -4   4 120.546 7.26409   0
  -3   4  -5  3.0247 0.65754   0
  -3   4  -5 3.12464 0.58916   0
   3  -4   5 4.16619 0.65228   0
   3  -5  -4  46.023 2.81113   0
   3  -5  -4 40.1886 3.10285   0
   3  -5  -4  45.535 2.80052   0
   3  -5  -4 43.5036 2.69975   0
  -3   5   3 69.8988 4.77481   0
  -3   5   3  80.124 4.81488   0
   3  -5  -3 84.7328 4.83779   0
   3  -5  -3  81.521 4.87214   0
   3  -5  -3 81.0343 4.80343   0
  -3   5   2 110.717 6.65229   0
  -3   5   2 113.958 6.62797   0
  -3   5   2 112.365 6.70701   0
   3  -5  -2 108.498 6.63405   0
   3  -5  -2 105.804 6.67661   0
  -3   5   1 108.484 6.54644   0
  -3   5   1  111.17 6.52117   0
  -3   5   1 110.095   6.597   0
   3  -5  -1 103.852 6.50853   0
  -3   5   0 158.524 8.90794   0
  -3   5   0 147.561  8.8311   0
  -3   5   0 147.471 8.79908   0
   3  -5   0 134.023 8.77987   0
  -3   5  -1 111.346 6.40743   0
  -3   5  -1 105.211 6.36951   0
  -3   5  -1 111.745 6.49589   0
   3  -5   1 95.2015 6.34424   0
  -3   5  -2 114.439 6.63405   0
  -3   5  -2 107.701 6.50027   0
  -3   5  -2 105.543 6.48203   0
   3  -5   2 106.795 6.45163   0
   3  -5   2 103.554 6.78606   0
  -3   5  -3 82.0019 4.99237   0
  -3   5  -3 83.4675 5.15267   0
  -3   5  -3 78.9275 4.99237   0
   3  -5   3 85.3397 5.26145   0
   3  -5   3 82.6717 4.95229   0
  -3   5  -4   41.61 2.72096   0
  -3   5  -4 43.3232 2.92782   0
  -3   5  -4 44.3469 2.75279   0
   3  -5   4 47.3755 2.73157   0
   3  -5   4 44.5219 2.98086   0
  -3   6   2  19.812 1.24536   0
  -3   6   2 20.0394 1.57023   0
  -3   6   2 19.4005 1.28326   0
   3  -6  -2 17.4566  1.2616   0
  -3   6   1 114.648 7.13297   0
  -3   6   1 122.598 7.11059   0
  -3   6   1 121.825  7.2001   0
   3  -6  -1 113.523 7.09381   0
  -3   6   0 39.7743 2.43285   0
  -3   6   0 39.9949 2.51772   0
  -3   6   0 38.7955  2.3989   0
   3  -6   0 36.3287 2.38193   0
  -3   6  -1 123.879 7.25605   0
  -3   6  -1 128.332 7.36794   0
  -3   6  -1 118.189 7.21688   0
   3  -6   1  109.68 7.18891   0
  -3   6  -2 18.7399 1.22911   0
  -3   6  -2 17.9656 1.19662   0
  -3   6  -2 19.2543 1.38614   0
   3  -6   2 17.0126 1.16414   0
  -4  -6   2 117.395  7.0109   0
   4   6  -2 110.972 7.25137   0
   4   6  -2 121.585 7.18725   0
   4   6  -2 116.765 7.03228   0
  -4  -6   1 25.9446 1.59464   0
   4   6  -1 25.3597 1.81535   0
   4   6  -1 24.5045 1.61119   0
   4   6  -1 24.7859 1.85398   0
  -4  -6   0  149.27 8.40747   0
   4   6   0 141.348 8.65294   0
   4   6   0 136.137 8.42421   0
   4   6   0 133.733 8.59157   0
  -4  -6  -1 26.9213 1.64982   0
  -4  -6  -1 28.3062 1.74362   0
   4   6   1 24.0465 1.94778   0
   4   6   1 25.6411 1.93122   0
   4   6   1 24.9459 1.66085   0
  -4  -6  -2 116.706 7.02159   0
  -4  -6  -2 129.648 7.11778   0
   4   6   2 106.991 7.25137   0
   4   6   2 118.058 7.28343   0
   4   6   2 112.752 7.03228   0
  -4  -5   4 62.2912 3.83725   0
   4   5  -4 58.6739 4.15135   0
   4   5  -4 69.0915 4.04665   0
  -4  -5   3 59.8377 3.76455   0
   4   5  -3 61.2205 4.06368   0
   4   5  -3 63.9635 3.96209   0
   4   5  -3 63.6813 3.80406   0
  -4  -5   2 113.456  6.9095   0
   4   5  -2 114.534 6.92746   0
   4   5  -2 118.114 7.10109   0
   4   5  -2 114.474 7.16097   0
  -4  -5   1 86.6245 5.04802   0
   4   5  -1 82.5836  5.2283   0
   4   5  -1 81.1537  5.2656   0
   4   5  -1 84.2807 5.06667   0
  -4  -5   0 124.925 7.11695   0
  -4  -5   0 112.208 7.04767   0
   4   5   0 119.691 7.31219   0
   4   5   0 116.605 7.07916   0
   4   5   0  114.23  7.2744   0
  -4  -5  -1 89.6645 5.16614   0
  -4  -5  -1 86.1023 5.09153   0
   4   5   1  83.342  5.1164   0
   4   5   1 80.2274  5.3402   0
   4   5   1 83.1058 5.35885   0
  -4  -5  -2 112.779  6.7179   0
  -4  -5  -2 120.365 6.80172   0
   4   5   2 114.276  7.0532   0
   4   5   2 100.673  6.9574   0
  -4  -5  -3 63.9578 3.67424   0
   4   5   3 54.8315  3.8605   0
   4   5   3 58.3533 3.97338   0
  -4  -5  -4 63.5424 4.11471   0
  -4  -5  -4 67.1964 3.83202   0
   4   5   4 62.1708 4.03095   0
   4   5   4 53.2818 3.97336   0
  -4  -4   4 5.72827 0.69243   0
  -4  -4   4 6.17463 0.46925   0
   4   4  -4 5.06446 0.80688   0
   4   4  -4 6.08879 0.69815   0
  -4  -4   3 159.668 9.69952   0
   4   4  -3 158.777 9.61848   0
   4   4  -3 163.701 9.78056   0
  -4  -4   2 15.2906 1.07455   0
  -4  -4   2 15.1104 0.99446   0
   4   4  -2 15.3373 1.19468   0
   4   4  -2 15.9113 1.25475   0
   4   4  -2 15.6043 1.01448   0
  -4  -4   1 320.038 18.2486   0
  -4  -4   1 313.325 18.2277   0
   4   4  -1 289.103 18.4091   0
   4   4  -1 301.168 18.2416   0
  -4  -4   0 31.0308 1.86369   0
  -4  -4   0 30.9741 1.79991   0
   4   4   0 27.3601  2.0125   0
   4   4   0 25.9429 2.04085   0
   4   4   0 30.3009 1.87786   0
  -4  -4  -1 300.408 17.8159   0
  -4  -4  -1 307.037 17.8788   0
   4   4   1 288.223 18.0602   0
   4   4   1  312.76  18.116   0
   4   4   1  288.07 17.9346   0
  -4  -4  -2 16.0915  1.0612   0
  -4  -4  -2 14.6566 0.96776   0
   4   4   2 16.2317 1.39491   0
   4   4   2 12.8745 1.22805   0
   4   4   2  16.512 1.07455   0
  -4  -4  -3 157.617  9.2133   0
  -4  -4  -3 158.278 9.12603   0
  -4  -4  -3 157.106 9.41901   0
   4   4   3 160.697 9.16966   0
   4   4   3 145.561 9.33797   0
   4   4   3  136.71 9.39407   0
  -4  -4  -4 6.50082 0.84694   0
  -4  -4  -4 7.33059  0.6352   0
   4   4   4  6.6496 0.56081   0
   4   4   4 5.39637 0.87555   0
   4   4   4 5.90567 0.72104   0
  -4  -3   5 5.38386 0.62228   0
  -4  -3   5  4.8338 0.44449   0
   4   3  -5 4.85603 0.86675   0
   4   3  -5 4.98938 0.89453   0
  -4  -3   4 216.504 12.7094   0
  -4  -3   4 202.298  12.598   0
   4   3  -4 200.499 12.8392   0
   4   3  -4 225.299 12.7836   0
  -4  -3   3 1.96158 0.27244   0
  -4  -3   3 1.98883 0.34736   0
   4   3  -3 2.74485 0.26563   0
   4   3  -3  2.2204 0.46996   0
  -4  -3   2 273.833 17.3083   0
  -4  -3   2 312.337 17.3377   0
   4   3  -2 272.545 17.4482   0
   4   3  -2 309.267 17.2862   0
   4   3  -2 281.762 17.4335   0
  -4  -3   1 3.53459 0.36431   0
  -4  -3   1 4.10043 0.34106   0
   4   3  -1 4.32522 0.53484   0
   4   3  -1 3.79038 0.53484   0
  -4  -3   0 263.389 15.8013   0
  -4  -3   0 265.236 15.8171   0
  -4  -3   0 279.277 15.7697   0
   4   3   0 276.814 15.7539   0
   4   3   0  240.35 15.8644   0
   4   3   0 263.231 16.0065   0
  -4  -3  -1 3.60435 0.34106   0
  -4  -3  -1 3.72062 0.35656   0
  -4  -3  -1  3.6121 0.29455   0
   4   3   1 3.74387 0.54259   0
   4   3   1 3.41832  0.6201   0
  -4  -3  -2  315.23 17.9709   0
  -4  -3  -2 294.874 18.2065   0
  -4  -3  -2 298.813 18.0519   0
   4   3   2 314.089  18.177   0
   4   3   2 315.834 18.0224   0
   4   3   2 273.046 18.2286   0
  -4  -3  -3  2.1591 0.27925   0
  -4  -3  -3 2.53371 0.36099   0
  -4  -3  -3 3.03773 0.53126   0
   4   3   3 2.32257 0.57894   0
   4   3   3 2.31576 0.39504   0
   4   3   3 2.07056 0.27925   0
   4   3   3 2.20678  0.3065   0
  -4  -3  -4 229.486 13.2412   0
  -4  -3  -4 214.791 13.3402   0
   4   3   4 214.519 13.2412   0
   4   3   4  221.78 13.1546   0
  -4  -3  -5 5.36719 0.58895   0
  -4  -3  -5 5.47276  0.7723   0
   4   3   5 5.52832 0.61673   0
   4   3   5 4.95604 0.48338   0
  -4  -2   5 96.0899 5.67921   0
  -4  -2   5 91.5934 5.56211   0
   4   2  -5 84.5968 5.87828   0
   4   2  -5 96.7632 5.90755   0
  -4  -2   4 114.196 6.83769   0
  -4  -2   4 102.835  6.7325   0
   4   2  -4 119.633 6.90344   0
   4   2  -4 111.159 6.99549   0
   4   2  -4 114.097 6.79167   0
  -4  -2   3 230.936 14.2019   0
  -4  -2   3 239.502 14.2604   0
   4   2  -3 234.349  14.158   0
   4   2  -3 248.865 14.3334   0
   4   2  -3 230.453 14.3627   0
   4   2  -3 243.274 14.2238   0
  -4  -2   2 224.908 13.5325   0
  -4  -2   2 252.811 13.5723   0
   4   2  -2 211.169 13.6202   0
   4   2  -2 214.797 13.4607   0
   4   2  -2 225.738 13.5165   0
   4   2  -2 221.711 13.6361   0
   4   2  -2 233.608 13.4846   0
  -4  -2   1 437.814 28.5186   0
  -4  -2   1 523.227 28.5862   0
   4   2  -1  455.63 28.6706   0
   4   2  -1 524.823   28.62   0
   4   2  -1 495.756 28.5608   0
   4   2  -1  442.30 28.5017   0
  -4  -2   0 242.096 13.0518   0
  -4  -2   0 237.682 13.1035   0
  -4  -2   0 208.794 13.0604   0
   4   2   0 202.639 13.1811   0
   4   2   0 231.019 13.2759   0
   4   2   0 191.544 13.1811   0
  -4  -2  -1 511.493 30.1236   0
  -4  -2  -1 501.094   29.98   0
   4   2   1 463.452 30.1405   0
   4   2   1 542.715 30.0053   0
   4   2   1  498.78 30.1321   0
  -4  -2  -2 264.597 14.1704   0
  -4  -2  -2 231.503  14.298   0
  -4  -2  -2 226.703 14.1226   0
  -4  -2  -2 227.261 14.2183   0
  -4  -2  -2 238.233 14.1624   0
   4   2   2 230.817 14.2422   0
   4   2   2 238.927 14.1704   0
   4   2   2 241.694 14.1784   0
  -4  -2  -3  238.23 14.6039   0
  -4  -2  -3 247.294 14.5527   0
  -4  -2  -3 232.719 14.4285   0
   4   2   3 240.716 14.4723   0
   4   2   3 254.326 14.5016   0
   4   2   3 242.148 14.5308   0
  -4  -2  -4 115.024 7.20588   0
  -4  -2  -4 120.048 7.28477   0
   4   2   4 122.178   7.173   0
   4   2   4  120.83 7.13356   0
   4   2   4 115.202 7.18615   0
  -4  -2  -5 109.527  6.4462   0
  -4  -2  -5  97.981 6.31154   0
   4   2   5 103.192 6.29983   0
   4   2   5 104.439 6.25299   0
   4   2   5  103.42 6.31154   0
  -4  -1   6 26.4258 1.71402   0
  -4  -1   6 26.9597 1.83149   0
   4   1  -6 28.1825 2.10915   0
  -4  -1   5 120.921 7.08307   0
  -4  -1   5 115.121  6.9741   0
   4   1  -5 115.987 7.05886   0
   4   1  -5 120.146 7.28285   0
   4   1  -5 107.984 7.28891   0
  -4  -1   4  67.709 4.01588   0
  -4  -1   4 66.8949 3.89958   0
   4   1  -4 58.0422 3.87221   0
   4   1  -4  65.383 4.20744   0
   4   1  -4 62.8243 4.17323   0
   4   1  -4 67.0933 3.99536   0
  -4  -1   3  280.96 16.1762   0
  -4  -1   3 287.421 16.0997   0
   4   1  -3 282.368 16.2068   0
   4   1  -3 232.056 16.0384   0
   4   1  -3 266.758 16.1456   0
  -4  -1   2 74.4017 4.28562   0
  -4  -1   2 77.3512 4.25201   0
   4   1  -2 69.9312 4.31083   0
   4   1  -2 66.9229 4.15117   0
   4   1  -2 63.7129 4.16798   0
   4   1  -2 68.7968 4.16798   0
   4   1  -2 68.9481 4.26881   0
   4   1  -2 68.5531 4.30243   0
  -4  -1   1 564.993 37.8975   0
   4   1  -1 657.581 37.8528   0
   4   1  -1 703.035 37.8885   0
   4   1  -1 616.071 37.8796   0
  -4  -1   0 24.7423 1.53554   0
  -4  -1   0 25.8026 1.56296   0
  -4  -1   0  27.329 1.59952   0
   4   1   0 24.6052  1.5264   0
   4   1   0  23.545 1.64522   0
   4   1   0 23.1794 1.68178   0
   4   1   0 25.1171 1.71834   0
  -4  -1  -1 653.235   39.99   0
  -4  -1  -1 598.911 39.9721   0
   4   1   1 764.164 40.0526   0
  -4  -1  -2 67.6792 4.36965   0
  -4  -1  -2 71.8136  4.2436   0
  -4  -1  -2 66.4523 4.37806   0
  -4  -1  -2 65.4103 4.36125   0
  -4  -1  -2 78.8302 4.30243   0
   4   1   2 70.7211 4.33604   0
   4   1   2 70.9312 4.34444   0
   4   1   2   78.41 4.37806   0
  -4  -1  -3 270.502 15.8317   0
  -4  -1  -3 282.177 15.6863   0
  -4  -1  -3 250.054 15.8088   0
  -4  -1  -3 252.083 15.7705   0
   4   1   3 270.272 15.7245   0
   4   1   3 265.059 15.7705   0
   4   1   3 257.939 15.6939   0
   4   1   3 261.384 15.7552   0
  -4  -1  -4 64.0557 4.17323   0
  -4  -1  -4 72.1422 4.29638   0
  -4  -1  -4 63.5905 4.22797   0
   4   1   4 71.0202 4.15271   0
   4   1   4 68.5231 4.18692   0
   4   1   4 71.5402 4.21428   0
  -4  -1  -5 125.976 7.57344   0
  -4  -1  -5 117.149 7.49474   0
   4   1   5  125.83 7.42209   0
   4   1   5 122.374 7.46447   0
   4   1   5 125.667 7.48868   0
  -4  -1  -6 28.6684   1.981   0
  -4  -1  -6  28.615  1.9009   0
   4   1   6 27.5845 1.79945   0
   4   1   6 29.0475 1.85819   0
   4   1   6 28.2412 1.89022   0
  -4   0   6 83.8041 5.14847   0
  -4   0   6 81.7286 5.04065   0
   4   0  -6 84.2947 5.35872   0
  -4   0   5 0.20206 0.14695   0
  -4   0   5-0.01225 0.23267   0
   4   0  -5 0.04286 0.20818   0
   4   0  -5 0.41024 0.47147   0
  -4   0   4 316.039 18.0544   0
  -4   0   4  312.82 17.9296   0
   4   0  -4 288.038 18.1792   0
   4   0  -4 309.727 18.0475   0
   4   0  -4  292.72 17.9087   0
   4   0  -4 287.095 18.1723   0
   4   0  -3 0.08559 0.29566   0
   4   0  -3 0.18673 0.28788   0
  -4   0   2 482.578 29.7594   0
  -4   0   2 489.571 29.7851   0
   4   0  -2 478.898  29.845   0
   4   0  -2 449.627 29.7594   0
   4   0  -2 532.982 29.8108   0
   4   0  -2 563.264 29.7851   0
  -4   0   1  0.8575 0.17333   0
  -4   0   1 0.67506 0.20069   0
  -4   0   1 1.04907  0.1642   0
   4   0  -1 0.65681 0.17333   0
   4   0  -1  0.5291  0.1642   0
   4   0  -1 0.32841 0.13684   0
  -4   0   0 421.481 26.2615   0
  -4   0   0 439.832 26.2802   0
  -4   0   0  468.08 26.2522   0
   4   0   0 432.275 26.2615   0
  -4   0  -1 0.13684 0.07298   0
  -4   0  -1 0.21894  0.1642   0
  -4   0  -1 0.20982 0.10035   0
  -4   0  -1 0.81189 0.22806   0
   4   0   1 0.10947 0.13684   0
   4   0   1 0.20982 0.10035   0
   4   0   1 0.31928 0.14596   0
   4   0   1 0.14596 0.10947   0
   4   0   1 0.07298 0.31928   0
  -4   0  -2 441.949  27.962   0
  -4   0  -2 497.043  28.022   0
  -4   0  -3 0.06224 0.24898   0
  -4   0  -3 0.08559 0.24898   0
  -4   0  -3 0.77805 0.22563   0
  -4   0  -3 0.36568 0.14005   0
   4   0   3   0.319 0.12449   0
   4   0   3 0.23341 0.18673   0
   4   0   3 0.18673 0.10893   0
  -4   0  -4 261.716 17.8602   0
  -4   0  -4  303.79 17.9226   0
  -4   0  -4 299.233 17.9296   0
   4   0   4 304.719 17.8324   0
   4   0   4 302.888 17.8047   0
   4   0   4 319.375 17.8949   0
  -4   0  -5 1.05316  0.3184   0
  -4   0  -5 0.18981 0.24492   0
  -4   0  -5 0.43473 0.30615   0
   4   0   5 0.09797 0.14083   0
   4   0   5 0.31228 0.18981   0
   4   0   5-0.05511 0.25104   0
  -4   0  -6 82.8661 5.11612   0
  -4   0  -6 82.2461 5.15925   0
   4   0   6 84.8284  5.0676   0
   4   0   6 81.4105 5.01908   0
   4   0   6 83.3836 5.12151   0
  -4   1   6 27.4189 1.86353   0
  -4   1   6  28.866 1.76741   0
   4  -1  -6 27.6058 2.10915   0
   4  -1  -6 27.0398 1.87421   0
  -4   1   5 127.628 7.26469   0
  -4   1   5 120.951 7.34339   0
   4  -1  -5 112.827 7.49474   0
   4  -1  -5 120.909 7.36155   0
  -4   1   4 73.4831 4.24849   0
  -4   1   4 74.7214 4.25533   0
  -4   1   4 72.9906 4.34427   0
   4  -1  -4 62.6806 4.46741   0
   4  -1  -4 65.1161 4.34427   0
   4  -1  -4 71.1502 4.20744   0
  -4   1   3 260.534 15.8853   0
  -4   1   3 293.193 15.9236   0
   4  -1  -3  255.65 15.7781   0
   4  -1  -3 261.645 15.9236   0
   4  -1  -3 255.551 16.0308   0
  -4   1   2 64.6793 3.84866   0
  -4   1   2 56.8811 3.88227   0
  -4   1   2 69.7464 3.87386   0
  -4   1   2 71.0573 3.98311   0
   4  -1  -2 55.8559 4.00832   0
   4  -1  -2 65.0574 3.85706   0
   4  -1  -2 68.1666 4.02512   0
   4  -1  -1 716.189 42.3686   0
   4  -1  -1 703.723 42.2166   0
  -4   1   0 24.7515 1.39844   0
  -4   1   0 25.0622 1.36188   0
  -4   1   0 24.1665 1.40758   0
  -4   1   0 18.8195  1.4807   0
  -4   1   0 23.7095  1.3893   0
   4  -1   0 23.3347 1.40758   0
   4  -1   0 20.4922 1.50812   0
   4  -1   0 19.7244 1.38016   0
   4  -1   0 23.1428 1.38016   0
   4  -1   0  18.134 1.71834   0
   4  -1   1  775.95 46.2496   0
  -4   1  -2 67.2926 3.99151   0
  -4   1  -2 66.4607 4.12596   0
  -4   1  -2  63.528 4.03353   0
  -4   1  -2 56.4609 4.04193   0
   4  -1   2 69.2506 3.94949   0
   4  -1   2 68.4859 3.99151   0
   4  -1   2 71.4438 4.09235   0
  -4   1  -3 253.553 15.9006   0
  -4   1  -3 277.139 15.9619   0
  -4   1  -3  268.68 16.0231   0
  -4   1  -3  252.94 15.8164   0
   4  -1   3  267.21 15.9159   0
   4  -1   3 267.486 15.8241   0
   4  -1   3 271.321 15.7628   0
  -4   1  -4 66.3613 4.22797   0
  -4   1  -4 65.5471 4.22112   0
  -4   1  -4 68.8105 4.37848   0
   4  -1   4 68.3453  4.1185   0
   4  -1   4  71.246 4.23481   0
  -4   1  -5 121.562 7.60371   0
  -4   1  -5 118.705  7.4342   0
  -4   1  -5 117.621 7.40998   0
   4  -1   5 122.955 7.29496   0
   4  -1   5 125.958 7.40998   0
  -4   1  -6 26.4632 1.89022   0
  -4   1  -6 28.5776 1.90624   0
   4  -1   6 27.5951 1.73538   0
   4  -1   6 27.2374 1.86353   0
   4  -1   6 27.5471 1.77809   0
  -4   2   5 105.622 6.09491   0
  -4   2   5 102.472 6.17687   0
   4  -2  -5  95.803 6.37009   0
   4  -2  -5 99.8253 6.20615   0
  -4   2   4 123.401 7.08096   0
  -4   2   4 122.638 6.99549   0
  -4   2   4 122.224 7.12041   0
   4  -2  -4 105.169 7.23875   0
   4  -2  -4 108.522 6.95604   0
   4  -2  -4 116.063 7.10726   0
  -4   2   3 258.229  13.968   0
  -4   2   3 222.048 13.9095   0
  -4   2   3 223.502 13.8949   0
  -4   2   3 238.238 13.8145   0
   4  -2  -3 218.276 14.0484   0
   4  -2  -3 223.941 13.8364   0
   4  -2  -3 242.302 13.9899   0
  -4   2   2 247.611 13.6521   0
  -4   2   2 231.822 13.5085   0
  -4   2   2 221.615 13.5325   0
  -4   2   2 226.998 13.5564   0
   4  -2  -2 226.304  13.668   0
   4  -2  -2 231.041 13.5803   0
   4  -2  -2 219.502 13.5165   0
   4  -2  -2 211.743  13.676   0
  -4   2   1 470.658 30.0222   0
   4  -2  -1 528.261 30.1743   0
   4  -2  -1 503.578 30.1067   0
   4  -2  -1 516.156 30.0138   0
  -4   2   0  208.07 12.3794   0
  -4   2   0 183.182 12.3966   0
  -4   2   0 228.527 12.4052   0
  -4   2   0 224.269  12.388   0
  -4   2   0 216.329 12.3621   0
   4  -2   0 210.725 12.4397   0
   4  -2   0 221.536 12.3535   0
   4  -2   0 182.044 12.3966   0
   4  -2   0 190.165 12.6208   0
  -4   2  -1 509.145 28.9579   0
   4  -2   1  493.39  29.017   0
   4  -2   1 458.722 28.9748   0
   4  -2   1 487.578  29.169   0
  -4   2  -2 221.264 13.6122   0
  -4   2  -2 228.991 13.5963   0
  -4   2  -2 218.792 13.6999   0
   4  -2   2 232.285 13.5644   0
   4  -2   2  231.24 13.5883   0
   4  -2   2 235.538 13.7318   0
  -4   2  -3 249.136 14.2384   0
  -4   2  -3 225.198 14.2677   0
  -4   2  -3 223.013 14.1726   0
   4  -2   3 241.205 14.3042   0
   4  -2   3 249.618 14.1361   0
   4  -2   3 238.603 14.1726   0
  -4   2  -4 109.429 6.86399   0
  -4   2  -4 114.485 7.10726   0
  -4   2  -4 107.904 6.98891   0
  -4   2  -4 120.994 7.00864   0
   4  -2   4 118.174 6.88372   0
   4  -2   4 117.227 7.01521   0
  -4   2  -5 94.1403 6.07734   0
  -4   2  -5 95.1824 6.07734   0
  -4   2  -5 97.5536 6.22957   0
   4  -2   5 100.926 5.95439   0
   4  -2   5 106.336 6.11247   0
  -4   3   5 5.07827 0.62228   0
  -4   3   5 5.52276 0.58895   0
  -4   3   5 5.48942 0.48894   0
   4  -3  -5 4.71157  0.6334   0
   4  -3  -5 5.62833 0.92787   0
  -4   3   4 213.938 13.1485   0
  -4   3   4 230.692 13.1732   0
  -4   3   4 229.529 13.0928   0
   4  -3  -4  205.83  13.334   0
   4  -3  -4  207.45 13.0681   0
   4  -3  -4  227.81 13.2289   0
  -4   3   3 2.55414 0.23158   0
  -4   3   3 2.15229  0.2452   0
  -4   3   3 1.70957 0.32693   0
  -4   3   3 2.26808 0.29287   0
  -4   3   3 1.78449 0.34055   0
  -4   3   3 2.68355 0.36099   0
   4  -3  -3 2.47922 0.51083   0
   4  -3  -3 2.55414 0.22476   0
   4  -3  -3 2.80615  0.4291   0
   4  -3  -3 2.11824 0.32693   0
  -4   3   2 341.042 18.3684   0
  -4   3   2 307.044 18.3684   0
  -4   3   2 295.898 18.4126   0
  -4   3   2 318.367 18.4126   0
  -4   3   2 292.901 18.3979   0
   4  -3  -2 309.068 18.5157   0
   4  -3  -2 276.197 18.3684   0
   4  -3  -2 315.201 18.4126   0
   4  -3  -2 322.762 18.5967   0
  -4   3   1 3.28654  0.3178   0
  -4   3   1 3.50358  0.2868   0
  -4   3   1 2.90673 0.41082   0
  -4   3   1 4.11593 0.33331   0
  -4   3   1 3.24004 0.34881   0
  -4   3   1 3.41832 0.24804   0
   4  -3  -1 3.36406  0.3023   0
   4  -3  -1 4.23995 0.51158   0
  -4   3   0 275.394 16.1249   0
  -4   3   0 266.191 16.0775   0
  -4   3   0  273.50 16.0539   0
  -4   3   0 269.435 16.1091   0
   4  -3   0 269.987 16.0696   0
   4  -3   0 264.841 16.2748   0
  -4   3  -1 3.22453 0.24804   0
  -4   3  -1 3.37181 0.37981   0
  -4   3  -1 3.75162  0.3178   0
  -4   3  -1 3.55009 0.29455   0
   4  -3   1 3.15477 0.38756   0
   4  -3   1 2.99975 0.43407   0
   4  -3   1  3.3098  0.6201   0
   4  -3   1 2.01533 0.66661   0
   4  -3   1 3.76712  0.2713   0
  -4   3  -2 296.722 17.9562   0
  -4   3  -2 296.074 18.0592   0
  -4   3  -2  290.59 17.9562   0
   4  -3   2 309.922 17.9414   0
   4  -3   2 305.056 17.9194   0
   4  -3   2 309.245 18.1255   0
  -4   3  -3 2.98324 0.44953   0
  -4   3  -3 2.21359  0.2452   0
  -4   3  -3 2.23402 0.29969   0
   4  -3   3 2.24083 0.25882   0
   4  -3   3 2.26808 0.21114   0
   4  -3   3 2.30894 0.44272   0
  -4   3  -4 221.334 12.9444   0
  -4   3  -4 206.355 12.9938   0
  -4   3  -4 198.872  12.864   0
  -4   3  -4 219.671 13.0928   0
   4  -3   4  222.72 12.8702   0
   4  -3   4 225.138 13.0371   0
  -4   3  -5 4.92826 0.78341   0
  -4   3  -5 5.83946 0.64451   0
  -4   3  -5 4.79491 0.69451   0
   4  -3   5 5.42275  0.6834   0
   4  -3   5 5.53387 0.50005   0
  -4   4   4 6.38064  0.6352   0
  -4   4   4 6.87851 0.52648   0
   4  -4  -4 6.94145 0.72104   0
   4  -4  -4 6.51799 0.76682   0
   4  -4  -4 5.74544 1.02434   0
   4  -4  -4 6.30625 0.50358   0
  -4   4   3 153.958 9.63719   0
  -4   4   3 160.466 9.61848   0
  -4   4   3 161.332 9.57485   0
  -4   4   3 174.847 9.67459   0
  -4   4   3 156.476 9.57485   0
   4  -4  -3 159.974 9.71199   0
   4  -4  -3 150.349 9.58732   0
   4  -4  -3 163.234 9.64965   0
   4  -4  -3 163.832  9.8803   0
  -4   4   2 17.2595 1.12127   0
  -4   4   2 16.8857  1.0879   0
  -4   4   2 15.5309 1.01448   0
  -4   4   2 15.2706 0.99446   0
  -4   4   2 15.9981 1.05453   0
   4  -4  -2 15.0503 1.12794   0
   4  -4  -2 16.2851  1.0612   0
   4  -4  -2 15.5042 1.02783   0
  -4   4   1 296.318 17.6694   0
  -4   4   1 294.246 17.7182   0
  -4   4   1 294.413 17.6973   0
   4  -4  -1 286.025 17.7601   0
   4  -4  -1 311.957 17.6764   0
  -4   4   0  30.145 1.84952   0
  -4   4   0 30.7261 1.87786   0
  -4   4   0 28.9758 1.90621   0
   4  -4   0 29.7978 1.83534   0
   4  -4   0 29.5072 1.97707   0
  -4   4  -1 298.077 17.3414   0
  -4   4  -1 290.498 17.2507   0
  -4   4  -1 297.421 17.2786   0
   4  -4   1 260.791 17.5577   0
   4  -4   1 299.096 17.2298   0
  -4   4  -2 16.8857  1.0345   0
  -4   4  -2 15.4508 1.02115   0
  -4   4  -2 15.1638 1.14129   0
   4  -4   2 14.9636 0.98111   0
   4  -4   2 14.8234 1.27477   0
  -4   4  -3 148.441   9.232   0
  -4   4  -3 160.391 9.40031   0
  -4   4  -3 151.103 9.24447   0
   4  -4   3  154.22  9.1946   0
   4  -4   3  156.62 9.42524   0
  -4   4  -4 6.00296 0.67526   0
  -4   4  -4 6.59238 0.72676   0
  -4   4  -4 5.92284 0.49786   0
  -4   4  -4 6.11741 0.57225   0
   4  -4   4 5.86561 0.77254   0
   4  -5  -4 64.9716 3.96813   0
   4  -5  -4 62.9247 4.07806   0
   4  -5  -4 67.3482  4.0833   0
   4  -5  -4 66.6363 4.37122   0
  -4   5   3 61.3221 3.78148   0
  -4   5   3 64.3642 3.82663   0
   4  -5  -3 63.8336 3.84921   0
   4  -5  -3 61.5365 3.80406   0
   4  -5  -3 61.7962 3.89436   0
  -4   5   2 114.186 6.81969   0
  -4   5   2 116.384 6.78975   0
  -4   5   2 111.654 6.75382   0
   4  -5  -2 111.169 6.77777   0
   4  -5  -2 109.348 6.83166   0
  -4   5   1 87.4513 4.97963   0
  -4   5   1 80.6128 4.94233   0
  -4   5   1 86.8918 5.02315   0
   4  -5  -1 81.2594 4.94233   0
   4  -5  -1 73.2584 4.97963   0
  -4   5   0 119.136 7.12325   0
  -4   5   0 118.796 7.16734   0
  -4   5   0 119.275 7.09176   0
   4  -5   0 114.929 7.07286   0
  -4   5  -1 85.7417 5.12883   0
  -4   5  -1 86.5872 5.20344   0
  -4   5  -1 82.6457 5.09775   0
   4  -5   1 82.8384  5.0791   0
  -4   5  -2 114.216 6.75382   0
  -4   5  -2 111.749 6.64006   0
  -4   5  -2 112.444 6.62809   0
   4  -5   2 112.025 6.59216   0
   4  -5   2 98.8944 6.94542   0
  -4   5  -3 60.9665  3.8605   0
  -4   5  -3  60.182 3.70246   0
  -4   5  -3 59.5555 3.70246   0
   4  -5   3 59.7982 4.00724   0
   4  -5   3  62.592 3.66296   0
  -4   5  -4 62.4431 3.95766   0
  -4   5  -4 63.3016  3.7849   0
  -4   5  -4 59.6842 3.75349   0
   4  -5   4 60.9144 4.02048   0
  -4   6   2  116.61 7.13915   0
  -4   6   2 125.058 7.11778   0
   4  -6  -2 113.291 7.12312   0
  -4   6   1 25.1887 1.63878   0
  -4   6   1 26.6012 1.71051   0
  -4   6   1 25.8784 1.61119   0
   4  -6  -1 23.6934 1.60568   0
  -4   6   0 147.809 8.56368   0
  -4   6   0  143.20 8.52463   0
  -4   6   0 145.365 8.62505   0
   4  -6   0 131.752 8.50789   0
  -4   6  -1 24.6093 1.55602   0
  -4   6  -1 24.3389 1.67741   0
  -4   6  -1 25.2494 1.59464   0
   4  -6   1 23.5278 1.53394   0
  -4   6  -2 114.702 6.97884   0
  -4   6  -2 115.012 6.95747   0
  -4   6  -2 117.171  7.0964   0
   4  -6   2 115.322 6.93075   0
  -5  -6   2 12.2278 0.79872   0
   5   6  -2 10.9982 1.06146   0
   5   6  -2 11.5079 0.83551   0
   5   6  -2 9.92625 1.08248   0
  -5  -6   1 109.688  6.0953   0
   5   6  -1 99.6561 6.27968   0
   5   6  -1  101.44 6.11157   0
   5   6  -1 93.2571 6.31764   0
  -5  -6   0 15.1069 0.92637   0
   5   6   0 12.6074 1.21689   0
   5   6   0  13.446 0.93185   0
   5   6   0 11.8509 1.17852   0
  -5  -6  -1 107.725  6.2851   0
  -5  -6  -1 113.349 6.36645   0
   5   6   1 98.4413 6.29595   0
   5   6   1 103.707 6.52913   0
   5   6   1 98.2027  6.5454   0
  -5  -6  -2 11.6183 0.90907   0
  -5  -6  -2 11.2032 0.83551   0
   5   6   2 11.0403   0.825   0
   5   6   2 13.4995 1.18232   0
   5   6   2 9.78962 1.10875   0
  -5  -5   3 76.5089 4.57357   0
   5   5  -3 76.3204 4.59575   0
   5   5  -3 80.6279 4.79532   0
   5   5  -3 69.2078  4.8563   0
  -5  -5   2 73.3406 4.38012   0
   5   5  -2 69.6064  4.6326   0
   5   5  -2 73.3171  4.5915   0
   5   5  -2 73.1351 4.39774   0
  -5  -5   1  75.913 4.23972   0
   5   5  -1 66.2396 4.45902   0
   5   5  -1 66.4223 4.43465   0
   5   5  -1 70.8143   4.258   0
  -5  -5   0 82.5926 4.73139   0
  -5  -5   0 81.9017 4.79307   0
   5   5   0 79.1443 4.75606   0
   5   5   0  74.635  4.9843   0
   5   5   0 72.7289 4.95963   0
  -5  -5  -1 74.6216 4.45293   0
  -5  -5  -1 77.0887 4.53212   0
   5   5   1 66.2944 4.69659   0
   5   5   1  76.979 4.73314   0
  -5  -5  -2 72.9883 4.30966   0
  -5  -5  -2 70.9509 4.22746   0
   5   5   2 61.6212 4.47994   0
   5   5   2 74.4562 4.56801   0
  -5  -5  -3 75.9102 4.29639   0
   5   5   3   68.21 4.57357   0
   5   5   3 63.8138 4.47933   0
  -5  -4   4 89.8223 6.22002   0
  -5  -4   4 111.286 6.34925   0
   5   4  -4 115.006 6.42792   0
   5   4  -4 97.5706  6.4841   0
  -5  -4   3 16.9973 1.23372   0
   5   4  -3 18.1882   1.136   0
   5   4  -3 16.3132 1.41695   0
   5   4  -3 17.5347 1.33755   0
  -5  -4   2 229.976 13.3545   0
   5   4  -2 208.362 13.5307   0
   5   4  -2 227.875 13.3154   0
   5   4  -2 225.311 13.5176   0
  -5  -4   1   17.52 1.11714   0
  -5  -4   1 19.2707 1.19207   0
   5   4  -1 15.2653 1.32831   0
   5   4  -1 18.0786 1.14439   0
   5   4  -1 16.2735 1.34874   0
  -5  -4   0 322.296 18.1223   0
  -5  -4   0 294.929 18.1777   0
  -5  -4   0 310.189 18.1638   0
   5   4   0  288.34 18.3436   0
   5   4   0 302.908 18.3574   0
   5   4   0 306.386 18.2053   0
  -5  -4  -1 18.0377 1.18526   0
  -5  -4  -1 17.2475 1.11033   0
   5   4   1 18.2216 1.32831   0
   5   4   1  20.381 1.45773   0
   5   4   1 14.9656  1.3828   0
  -5  -4  -2 224.006 13.1131   0
  -5  -4  -2 228.397 13.1979   0
   5   4   2 225.363 13.2175   0
   5   4   2  202.34 13.3741   0
   5   4   2  219.59 13.4589   0
  -5  -4  -3  17.321 1.39252   0
  -5  -4  -3 16.6369 1.19097   0
   5   4   3 18.1638 1.16654   0
   5   4   3 16.2766 1.36809   0
   5   4   3 16.1422 1.42916   0
  -5  -4  -4 116.894 6.88304   0
  -5  -4  -4 111.983 7.03475   0
   5   4   4 111.191 6.95608   0
   5   4   4 116.478 6.82123   0
   5   4   4 107.825 7.09655   0
  -5  -3   5 92.5127 5.49234   0
  -5  -3   5 96.1269 5.63429   0
   5   3  -5 84.5526 5.78716   0
   5   3  -5 90.6946 5.82538   0
  -5  -3   4 1.73346 0.38791   0
   5   3  -4  2.8002 0.47276   0
   5   3  -4 2.01833 0.53943   0
  -5  -3   3 235.056 14.7097   0
  -5  -3   3 252.248  14.763   0
   5   3  -3 216.481 14.8561   0
   5   3  -3  252.98 14.8628   0
   5   3  -3 248.349 14.6698   0
   5   3  -3 271.475 14.6964   0
  -5  -3   2 19.5473 1.32706   0
  -5  -3   2 22.1225 1.34858   0
   5   3  -2 18.9662 1.46336   0
   5   3  -2 20.7954 1.26968   0
   5   3  -2 20.8815 1.28402   0
   5   3  -2 18.7797 1.47053   0
  -5  -3   1 401.389 23.0468   0
  -5  -3   1 338.896 22.9865   0
  -5  -3   1 422.574 23.0016   0
   5   3  -1 426.697 23.0694   0
   5   3  -1  368.04 23.1674   0
   5   3  -1  405.64 22.9639   0
   5   3  -1 339.152 23.1674   0
  -5  -3   0 64.6601 3.47379   0
  -5  -3   0 57.2984 3.52747   0
  -5  -3   0 63.6708 3.57348   0
   5   3   0 50.0364 3.68084   0
   5   3   0 56.2018 3.65016   0
   5   3   0 60.4731 3.73452   0
   5   3   0 52.3216 3.61949   0
  -5  -3  -1 415.415 23.4613   0
  -5  -3  -1 397.101 23.4613   0
  -5  -3  -1 418.369 23.3935   0
   5   3   1 355.944 23.5291   0
   5   3   1 411.752 23.7251   0
   5   3   1  361.37 23.6271   0
  -5  -3  -2 21.7925 1.54944   0
  -5  -3  -2 20.2503 1.38445   0
  -5  -3  -2 21.7208 1.33424   0
  -5  -3  -2 20.7811 1.27685   0
   5   3   2 20.8098 1.52792   0
   5   3   2 20.6591 1.36293   0
   5   3   2 18.8443 1.57096   0
  -5  -3  -3 251.117 15.4283   0
  -5  -3  -3 257.424 15.3218   0
  -5  -3  -3  246.50 15.2021   0
   5   3   3 261.196 15.5414   0
   5   3   3 253.578 15.3617   0
   5   3   3 262.952 15.2619   0
  -5  -3  -4 2.38805 0.49095   0
  -5  -3  -4 3.00628 0.43033   0
   5   3   4 2.15167 0.38791   0
   5   3   4 2.28502 0.34548   0
  -5  -3  -5 98.9877 6.18025   0
  -5  -3  -5 105.108 6.31674   0
   5   3   5 100.768 6.20209   0
   5   3   5  99.905 6.11474   0
  -5  -2   5 46.8513 2.92426   0
  -5  -2   5  48.638 3.05065   0
   5   2  -5 48.5518 3.28045   0
   5   2  -5 46.5181 3.29194   0
  -5  -2   4 101.145 6.44292   0
  -5  -2   4 107.575  6.5458   0
   5   2  -4 97.7819 6.66154   0
   5   2  -4 116.744 6.62296   0
   5   2  -4 112.693 6.50722   0
  -5  -2   3 139.087 7.99302   0
  -5  -2   3 134.321  7.9289   0
   5   2  -3 131.329 8.05001   0
   5   2  -3  130.51 7.86479   0
   5   2  -3 135.831 7.95027   0
   5   2  -3 119.724 8.05713   0
  -5  -2   2 302.417 16.2876   0
  -5  -2   2 299.497 16.2644   0
   5   2  -2  261.71 16.3573   0
   5   2  -2  250.89 16.1637   0
   5   2  -2 234.447 16.3186   0
   5   2  -2 282.807 16.2489   0
  -5  -2   1 196.892 10.8298   0
  -5  -2   1 191.563 10.8543   0
   5   2  -1 187.831 10.8953   0
   5   2  -1 164.665  10.928   0
   5   2  -1 164.035 10.7479   0
   5   2  -1 179.268 10.8625   0
  -5  -2   0 454.746 27.4676   0
  -5  -2   0  478.35 27.5176   0
   5   2   0 507.445 27.6846   0
   5   2   0 387.576 27.5928   0
   5   2   0  480.92 27.6178   0
  -5  -2  -1 174.152 11.3046   0
  -5  -2  -1 197.809 11.4601   0
  -5  -2  -1 184.294 11.2636   0
   5   2   1 202.131 11.3782   0
   5   2   1  183.23 11.4846   0
   5   2   1 191.604  11.501   0
  -5  -2  -2 268.161 17.5733   0
  -5  -2  -2 310.085 17.5346   0
  -5  -2  -2 290.405 17.6507   0
  -5  -2  -2 290.591 17.4726   0
   5   2   2 286.664 17.6198   0
   5   2   2 304.648 17.5501   0
   5   2   2 307.149  17.581   0
  -5  -2  -3 133.067 8.06426   0
  -5  -2  -3 132.426 8.21386   0
  -5  -2  -3 128.088 8.03576   0
  -5  -2  -3 137.114 8.18536   0
   5   2   3 133.872 8.15687   0
   5   2   3 145.442 8.13549   0
   5   2   3 134.599 8.09987   0
  -5  -2  -4 106.411 6.78371   0
  -5  -2  -4 111.857 6.84158   0
   5   2   4 111.504 6.74513   0
   5   2   4 113.561 6.76442   0
   5   2   4 113.343 6.70655   0
  -5  -2  -5 55.2104 3.44706   0
  -5  -2  -5 50.3558 3.34939   0
   5   2   5 53.3547 3.28045   0
   5   2   5 53.0962 3.34365   0
   5   2   5 54.5784 3.34365   0
  -5  -1   6 78.3464 4.91995   0
  -5  -1   6 81.5388 5.04596   0
   5   1  -6 83.9751 5.26125   0
  -5  -1   5 23.2542 1.60251   0
  -5  -1   5 22.2452 1.47787   0
   5   1  -5 24.0614 1.83992   0
   5   1  -5 23.9427 1.59064   0
   5   1  -5 22.7913 1.81618   0
  -5  -1   4 194.641 11.6059   0
  -5  -1   4  203.30 11.7261   0
   5   1  -4 199.458 11.6927   0
   5   1  -4 207.496 11.7662   0
   5   1  -4  188.24 11.8865   0
   5   1  -4 171.783 11.8197   0
  -5  -1   3 92.9646 5.50355   0
  -5  -1   3 94.9754 5.43653   0
   5   1  -3 87.4462  5.5259   0
   5   1  -3 88.5931 5.48121   0
   5   1  -3 84.5715 5.56313   0
  -5  -1   2 385.784 21.2496   0
  -5  -1   2 398.506 21.2822   0
   5   1  -2 364.534 21.2741   0
   5   1  -2 315.886 21.1519   0
   5   1  -2 323.933 21.2578   0
   5   1  -2 346.241 21.2985   0
  -5  -1   1 201.868  12.862   0
  -5  -1   1 243.514 12.9398   0
  -5  -1   1 227.204 12.9226   0
  -5  -1   1 193.493 12.7929   0
   5   1  -1 224.628 12.9658   0
   5   1  -1 216.822  13.009   0
   5   1  -1 200.581 12.9139   0
  -5  -1   0 439.506 28.4225   0
  -5  -1   0 444.344 28.3783   0
  -5  -1   0  431.13  28.343   0
   5   1   0 536.575  28.546   0
   5   1   0 539.532 28.4578   0
   5   1   0 437.926 28.4578   0
   5   1   0 509.036 28.5195   0
  -5  -1  -1 193.164 13.3461   0
  -5  -1  -1 212.578  13.372   0
  -5  -1  -1 239.435 13.4066   0
  -5  -1  -1 212.129 13.3807   0
   5   1   1 252.616  13.398   0
   5   1   1 243.048 13.4412   0
   5   1   1 210.495 13.4671   0
  -5  -1  -2 373.836 21.1193   0
  -5  -1  -2  325.04 21.1763   0
  -5  -1  -2  318.02   21.16   0
   5   1   2 367.817 21.1112   0
   5   1   2 369.836 21.1438   0
   5   1   2 370.008 21.1682   0
  -5  -1  -3 85.1971 5.35461   0
  -5  -1  -3 78.3828 5.32482   0
  -5  -1  -3 95.3999 5.25035   0
  -5  -1  -3 82.8587 5.36206   0
   5   1   3 85.8823 5.30992   0
   5   1   3 86.7015 5.27269   0
   5   1   3 93.2178 5.33971   0
   5   1   3 91.4007 5.28014   0
  -5  -1  -4 181.926 11.6593   0
  -5  -1  -4 201.696 11.6994   0
  -5  -1  -4  178.05 11.6126   0
   5   1   4 201.148  11.646   0
   5   1   4 196.077 11.6192   0
   5   1   4 202.338 11.5858   0
  -5  -1  -5 20.8742 1.53129   0
  -5  -1  -5 24.0258 1.64406   0
  -5  -1  -5 24.1326 1.61438   0
   5   1   5 23.1236 1.59064   0
   5   1   5 24.0317 1.50161   0
   5   1   5 24.0911 1.54316   0
  -5  -1  -6 87.4931 5.35576   0
  -5  -1  -6 86.7475 5.39776   0
   5   1   6 88.9949 5.31375   0
   5   1   6 86.4325 5.34526   0
   5   1   6 84.3007 5.25599   0
  -5   0   6 0.20675 0.31277   0
  -5   0   6 0.30217 0.17494   0
   5   0  -6 0.06361 0.26506   0
   5   0  -6 0.36048 0.54602   0
  -5   0   5 189.007 11.7522   0
  -5   0   5 201.438 11.8722   0
   5   0  -5 188.281 12.0043   0
   5   0  -5 207.236 11.8782   0
  -5   0   4 0.37241 0.19636   0
  -5   0   4 0.18959 0.23699   0
   5   0  -4 0.28439  0.3995   0
   5   0  -4-0.16251 0.35887   0
   5   0  -4 0.20313 0.20991   0
  -5   0   3 483.377 26.5866   0
  -5   0   3 488.944 26.5261   0
   5   0  -3 389.806 26.6395   0
   5   0  -3  395.04 26.5715   0
   5   0  -3 443.213 26.5715   0
   5   0  -3 467.319  26.579   0
  -5   0   2 0.18236 0.21552   0
   5   0  -2 0.36472 0.28183   0
   5   0  -2  0.4559 0.23209   0
   5   0  -2 0.03316 0.19894   0
   5   0  -2 0.24038 0.20723   0
   5   0  -2  0.2984 0.08289   0
  -5   0   1 504.441 28.7837   0
  -5   0   1 486.565 28.7044   0
   5   0  -1 409.914 28.6956   0
   5   0  -1 486.089  28.907   0
   5   0  -1 511.137 28.8013   0
   5   0  -1 496.141  28.766   0
  -5   0   0 0.14403 0.14403   0
  -5   0   0 0.24305 0.18904   0
  -5   0   0 0.17103 0.17103   0
   5   0   0 0.21604 0.19804   0
   5   0   0 0.38707 0.19804   0
   5   0   0 0.25205 0.10802   0
   5   0   0 0.08102 0.21604   0
  -5   0  -1 556.951 32.9334   0
  -5   0  -1 533.004 32.9334   0
   5   0   1  579.70 32.8893   0
   5   0   1 561.127 32.9069   0
   5   0   1 531.401 33.0127   0
  -5   0  -2 0.17407 0.16578   0
  -5   0  -2-0.08289 0.20723   0
   5   0   2 0.06631 0.11605   0
   5   0   2  0.1492 0.11605   0
  -5   0  -3 440.929 26.5336   0
  -5   0  -3 415.227 26.5034   0
  -5   0  -3 420.461 26.4807   0
   5   0   3 445.566 26.4202   0
   5   0   3 443.728 26.5034   0
   5   0   3 456.026 26.4429   0
   5   0   3 484.882 26.3975   0
  -5   0  -4  0.0474 0.20991   0
  -5   0  -4 0.01354 0.29793   0
  -5   0  -4-0.06771 0.25053   0
   5   0   4 0.02031 0.14896   0
   5   0   4 0.18282 0.23022   0
   5   0   4 0.02031 0.12865   0
  -5   0  -5  197.26 11.8062   0
  -5   0  -5 175.929 11.7282   0
  -5   0  -5 189.704 11.7882   0
   5   0   5 199.073 11.6862   0
   5   0   5 204.745 11.7882   0
   5   0   5 205.105 11.7282   0
  -5   0  -6 0.63084 0.37639   0
  -5   0  -6 0.28626 0.31277   0
   5   0   6 0.32867 0.30217   0
   5   0   6-0.11663 0.21205   0
   5   0   6 0.05301 0.16434   0
  -5   1   6 88.0182 5.24024   0
  -5   1   6 83.0878 5.33476   0
   5  -1  -6 85.5451 5.35576   0
   5  -1  -6 89.1419 5.49753   0
  -5   1   5 24.4472 1.64999   0
  -5   1   5 24.5659 1.54316   0
   5  -1  -5 23.5213 1.66186   0
   5  -1  -5 23.4679 1.82211   0
  -5   1   4 211.685 11.8999   0
   5  -1  -4 188.507 11.9867   0
   5  -1  -4 190.605 11.8932   0
  -5   1   3 73.9442 5.21311   0
  -5   1   3 89.7623 5.14608   0
  -5   1   3  97.783 5.29503   0
   5  -1  -3 81.0713 5.35461   0
   5  -1  -3  88.526 5.29503   0
   5  -1  -3 82.7916 5.10885   0
  -5   1   2 342.087  19.751   0
  -5   1   2 288.039  19.751   0
  -5   1   2 367.002 19.8813   0
   5  -1  -2 309.883 19.8732   0
   5  -1  -2 353.775 19.9383   0
  -5   1   1  212.44 12.8188   0
  -5   1   1 203.286 12.7929   0
  -5   1   1 216.857 12.8102   0
  -5   1   1 227.489 12.8793   0
   5  -1  -1 221.983 12.8275   0
   5  -1  -1 194.279 12.8275   0
   5  -1  -1 218.491 12.8966   0
   5  -1  -1 225.224 13.0695   0
   5  -1  -1 214.558  12.862   0
  -5   1   0 450.416 26.1275   0
  -5   1   0 450.937 26.1451   0
   5  -1   0 467.011 26.5688   0
   5  -1   0 370.004 26.4452   0
   5  -1   0 485.627 26.2864   0
   5  -1   0 424.889 26.1628   0
   5  -1   0 464.707 26.1451   0
   5  -1   0  401.71 26.1451   0
  -5   1  -1 207.003 13.8302   0
  -5   1  -1 236.841 13.9425   0
  -5   1  -1 232.632 13.8907   0
  -5   1  -1 227.273 13.8734   0
   5  -1   1 246.393 13.8474   0
   5  -1   1 241.976 14.0635   0
   5  -1   1 220.591 13.8302   0
   5  -1   1 246.393 13.9166   0
  -5   1  -2 376.344 21.3474   0
  -5   1  -2 348.693 21.2089   0
  -5   1  -2 335.979 21.2822   0
  -5   1  -2 345.997 21.3962   0
  -5   1  -2 346.095 21.2659   0
   5  -1   2 365.259 21.3799   0
   5  -1   2  356.78 21.2659   0
   5  -1   2 369.551 21.2171   0
   5  -1   2 368.664 21.2578   0
  -5   1  -3 85.1599 5.44398   0
  -5   1  -3 90.4177 5.39184   0
  -5   1  -3 84.0502 5.31737   0
  -5   1  -3 84.2811 5.27269   0
   5  -1   3 88.0122 5.36206   0
   5  -1   3  90.589 5.26524   0
   5  -1   3 88.6675 5.25779   0
  -5   1  -4 201.362  11.793   0
  -5   1  -4 184.759 11.7662   0
  -5   1  -4 191.139 11.9266   0
   5  -1   4  195.95 11.6861   0
   5  -1   4 199.017 11.7996   0
   5  -1   4 200.687 11.7061   0
  -5   1  -5 22.1087 1.60251   0
  -5   1  -5 22.9574 1.66186   0
  -5   1  -5 21.9069 1.62032   0
   5  -1   5 23.3848 1.51348   0
   5  -1   5 24.7143 1.63812   0
   5  -1   5 24.9992 1.50161   0
  -5   1  -6 81.6858 5.19824   0
  -5   1  -6 85.3876 5.23499   0
   5  -1   6 83.1298 5.21399   0
   5  -1   6 84.0907 5.09322   0
   5  -1   6 86.1122 5.12998   0
  -5   2   5 54.5957 3.39535   0
  -5   2   5 56.1756 3.29194   0
   5  -2  -5 52.5791 3.41259   0
   5  -2  -5 50.8901 3.55047   0
  -5   2   4 121.631 6.81586   0
  -5   2   4  113.51 6.90588   0
  -5   2   4 117.381 6.86087   0
   5  -2  -4 107.845 6.75799   0
   5  -2  -4 109.806 7.04092   0
   5  -2  -4 108.797  6.9316   0
  -5   2   3 139.842 7.75793   0
  -5   2   3 144.943  7.8078   0
  -5   2   3 119.404 7.65107   0
  -5   2   3 125.609 7.62257   0
   5  -2  -3 130.353 7.81492   0
   5  -2  -3  124.96 7.83629   0
   5  -2  -3  111.61  7.6297   0
  -5   2   2 261.624 16.9769   0
  -5   2   2 285.208 16.9614   0
  -5   2   2 276.766 17.0234   0
  -5   2   2 290.676 16.9614   0
   5  -2  -2 305.484 17.1783   0
   5  -2  -2 290.614 17.1163   0
   5  -2  -2 286.695 17.0466   0
  -5   2   1 167.186 10.6251   0
  -5   2   1 178.966 10.5924   0
  -5   2   1 173.432 10.5678   0
  -5   2   1 179.727 10.5842   0
  -5   2   1 166.179 10.6006   0
   5  -2  -1 197.875 10.6906   0
   5  -2  -1  178.45 10.8216   0
   5  -2  -1 179.563 10.6251   0
   5  -2   0 383.578 24.9637   0
   5  -2   0 423.198 24.9637   0
   5  -2   0 480.094 24.8886   0
   5  -2   0 385.339 25.2391   0
  -5   2  -1  174.39 10.3959   0
  -5   2  -1 169.077 10.4532   0
  -5   2  -1 176.493 10.4041   0
   5  -2   1 182.379 10.6661   0
   5  -2   1 165.295 10.4696   0
   5  -2   1 180.717  10.355   0
   5  -2   1  182.33 10.3714   0
   5  -2   1 161.219 10.3714   0
  -5   2  -2 276.317 15.8539   0
  -5   2  -2 238.219 15.8539   0
  -5   2  -2 263.274 15.9314   0
  -5   2  -2 270.446 15.8307   0
   5  -2   2  292.79 15.7997   0
   5  -2   2  227.57 15.8229   0
   5  -2   2 290.288 16.0088   0
  -5   2  -3 129.726 7.98589   0
  -5   2  -3 117.943 7.87903   0
  -5   2  -3 139.928 7.89328   0
  -5   2  -3 122.467 7.81492   0
   5  -2   3 134.236 7.96452   0
   5  -2   3 131.999 7.82204   0
   5  -2   3 137.655  7.7793   0
  -5   2  -4 110.269   6.803   0
  -5   2  -4 109.729 6.71298   0
  -5   2  -4 100.618 6.65511   0
   5  -2   4 114.455 6.73227   0
   5  -2   4 112.391 6.58438   0
  -5   2  -5 50.1317 3.38386   0
  -5   2  -5 46.9489 3.23449   0
  -5   2  -5 46.6502 3.21726   0
   5  -2   5 54.6301 3.12533   0
   5  -2   5 55.8596 3.29769   0
  -5   3   5 104.753 6.46415   0
  -5   3   5 99.7139 6.49145   0
  -5   3   5 108.957 6.38226   0
   5  -3  -5 105.321 6.51874   0
   5  -3  -5 110.507 6.68799   0
  -5   3   4 1.98196 0.35154   0
  -5   3   4 1.98196 0.30911   0
  -5   3   4  2.8002 0.44246   0
   5  -3  -4 2.04863 0.56368   0
   5  -3  -4 2.03651  0.2485   0
  -5   3   3  265.72 15.6877   0
  -5   3   3 258.215 15.6212   0
  -5   3   3 282.186 15.7676   0
  -5   3   3 235.975 15.6744   0
  -5   3   3 274.469 15.6478   0
   5  -3  -3 277.862 15.8607   0
   5  -3  -3 267.882 15.8075   0
   5  -3  -3  239.62 15.6279   0
   5  -3  -3 261.329 15.7276   0
  -5   3   2 20.5228 1.31272   0
  -5   3   2 20.2503 1.34141   0
  -5   3   2 19.3249 1.33424   0
  -5   3   2 21.2474 1.29837   0
   5  -3  -2 21.3621 1.35576   0
   5  -3  -2 23.2272 1.53509   0
   5  -3  -2 20.7452 1.47053   0
  -5   3   1 422.507 24.4109   0
  -5   3   1 408.496 24.3883   0
  -5   3   1 392.391 24.4184   0
   5  -3  -1 411.556 24.5767   0
   5  -3  -1  414.85 24.4109   0
  -5   3   0 60.7032 3.61182   0
  -5   3   0 58.6787 3.58882   0
  -5   3   0 61.5237 3.62716   0
  -5   3   0  60.013 3.58882   0
   5  -3   0 56.1865 3.85721   0
   5  -3   0 58.1572 3.58115   0
  -5   3  -1 413.282 23.9964   0
  -5   3  -1  403.01 23.9286   0
  -5   3  -1 405.753 23.9436   0
   5  -3   1 385.284 24.2225   0
   5  -3   1 430.209 24.0039   0
   5  -3   1 402.701 23.8984   0
   5  -3   1 371.853 24.3431   0
  -5   3  -2 20.0422  1.3988   0
  -5   3  -2 20.4081 1.29837   0
  -5   3  -2 19.7983  1.2912   0
   5  -3   2 21.3621 1.52074   0
   5  -3   2 20.7022 1.33424   0
   5  -3   2 19.6979 1.25533   0
  -5   3  -3 244.264 14.9426   0
  -5   3  -3  238.37 14.7962   0
  -5   3  -3 252.228 14.8361   0
  -5   3  -3 224.704 14.8628   0
   5  -3   3 258.335 14.9825   0
   5  -3   3 250.485 14.7962   0
   5  -3   3 268.288  14.763   0
  -5   3  -4 1.73952  0.3576   0
  -5   3  -4 2.52746 0.47276   0
  -5   3  -4 2.24259 0.38791   0
  -5   3  -4 1.79407 0.26062   0
   5  -3   4 2.14561 0.45458   0
   5  -3   4 2.01833 0.30911   0
  -5   3  -5 99.7903 6.21847   0
  -5   3  -5 92.0759  6.0929   0
  -5   3  -5 92.1305 6.06014   0
   5  -3   5 105.184 6.16387   0
   5  -3   5 105.283 5.97279   0
  -5   4   4 124.131 7.46178   0
   5  -4  -4 123.765 7.52358   0
   5  -4  -4 113.792 7.47863   0
   5  -4  -4 119.034 7.36064   0
   5  -4  -4 133.756 7.68091   0
  -5   4   3 18.1272 1.20318   0
  -5   4   3 18.8601 1.14822   0
  -5   4   3 18.9211 1.27647   0
  -5   4   3 17.4248   1.136   0
   5  -4  -3 19.4647 1.47802   0
   5  -4  -3 17.4614 1.33144   0
   5  -4  -3 16.8385 1.14822   0
   5  -4  -3 17.7851 1.23983   0
  -5   4   2 227.594 13.9613   0
  -5   4   2 227.725 13.9547   0
  -5   4   2 247.297 13.9156   0
  -5   4   2 228.951 13.9221   0
   5  -4  -2 232.037 14.0656   0
   5  -4  -2 237.961 13.9678   0
  -5   4   1 18.6303 1.23294   0
  -5   4   1 18.4805 1.18526   0
  -5   4   1 19.3115 1.22613   0
   5  -4  -1 18.7189 1.19888   0
   5  -4  -1 18.0854 1.32831   0
  -5   4   0 305.148 18.3989   0
  -5   4   0 317.082 18.4611   0
  -5   4   0 303.551 18.4266   0
   5  -4   0 311.426  18.392   0
   5  -4   0 306.552 18.5718   0
  -5   4  -1 18.0105 1.14439   0
  -5   4  -1 18.1603 1.23294   0
  -5   4  -1 18.4192 1.17163   0
   5  -4   1 15.2653 1.49179   0
   5  -4   1 17.8402 1.11714   0
  -5   4  -2 221.599 12.9696   0
  -5   4  -2 221.018 13.0609   0
  -5   4  -2 216.667 12.9566   0
   5  -4   2 223.869 13.2436   0
   5  -4   2 185.391 13.3154   0
   5  -4   2 230.778 12.9239   0
  -5   4  -3 15.7819 1.09325   0
  -5   4  -3 16.9057 1.25815   0
  -5   4  -3 17.0278 1.11768   0
   5  -4   3 16.6247  1.0505   0
   5  -4   3 17.4187 1.36198   0
  -5   4  -4 115.764 6.47287   0
  -5   4  -4 90.8505 6.39982   0
  -5   4  -4 103.543 6.50658   0
  -5   4  -4 110.865 6.61334   0
   5  -4   4 112.444 6.64143   0
  -5   5   3 79.3362 4.69553   0
   5  -5  -3 73.4599  4.7676   0
   5  -5  -3 78.5213 4.72325   0
  -5   5   2 76.5171 4.52691   0
  -5   5   2 76.6756 4.48581   0
   5  -5  -2 70.9744 4.58562   0
   5  -5  -2 72.7887 4.51517   0
  -5   5   1 71.4113 4.34328   0
  -5   5   1 73.8236 4.29455   0
  -5   5   1 71.8073 4.32501   0
   5  -5  -1 69.5899 4.29455   0
   5  -5  -1 67.6163 4.36765   0
  -5   5   0 77.6824 4.78691   0
  -5   5   0 79.7674 4.86093   0
  -5   5   0 80.4521 4.82392   0
   5  -5   0  79.206 4.78074   0
  -5   5  -1 74.4754 4.43465   0
  -5   5  -1 71.6367  4.4042   0
  -5   5  -1 73.2936 4.50166   0
   5  -5   1 71.3078 4.37983   0
  -5   5  -2 69.6592 4.19223   0
  -5   5  -2 72.0489 4.20985   0
  -5   5  -2 71.7553 4.30966   0
   5  -5   2 59.0142 4.56214   0
   5  -5   2 71.1917 4.16288   0
  -5   5  -3 71.7413  4.4627   0
  -5   5  -3 74.7072 4.47378   0
  -5   5  -3 73.8978 4.61238   0
   5  -5   3 71.9354 4.80086   0
   5  -5   3 74.8458 4.42389   0
  -5   6   2 12.4223 0.87229   0
  -5   6   2 12.2594   0.825   0
   5  -6  -2 10.4517 0.85653   0
  -5   6   1 100.193 6.13869   0
  -5   6   1 107.042 6.11157   0
   5  -6  -1  96.706 6.10615   0
  -5   6   0 14.8603 1.00859   0
  -5   6   0 14.3066  0.9757   0
  -5   6   0 14.9699 1.09081   0
   5  -6   0 13.5721 0.95926   0
  -5   6  -1 101.614 6.07361   0
  -5   6  -1 103.219 6.18207   0
  -5   6  -1 105.074 6.11157   0
   5  -6   1 92.7582  6.0465   0
  -5   6  -2 11.0035  0.7777   0
  -5   6  -2 11.8337 0.92484   0
  -5   6  -2 10.4307 0.80923   0
   5  -6   2 10.5989 0.75143   0
  -6  -6   1 11.5642 0.77555   0
   6   6  -1 10.1831 1.07834   0
   6   6  -1 9.01978 1.05709   0
   6   6  -1 11.0383 0.78618   0
  -6  -6   0 111.972 6.00655   0
   6   6   0 91.0323 6.24273   0
   6   6   0 95.6754 6.22126   0
   6   6   0 98.6116 6.01729   0
  -6  -6  -1 12.7116 0.94022   0
  -6  -6  -1 12.9613 0.84992   0
   6   6   1  11.118 1.15802   0
   6   6   1 11.4474  0.8393   0
   6   6   1 9.44475 1.14208   0
  -6  -5   3 61.2322 3.60349   0
   6   5  -3 62.2416 3.84227   0
   6   5  -3 53.8895 3.89112   0
  -6  -5   2 83.4115 4.87079   0
   6   5  -2 74.4617 5.10601   0
   6   5  -2 84.1975 4.89374   0
   6   5  -2 79.7513  5.0888   0
  -6  -5   1 106.539 5.85642   0
   6   5  -1 100.671 5.87425   0
   6   5  -1 87.8878 6.06451   0
   6   5  -1 92.8524 6.06451   0
  -6  -5   0 122.518 7.25334   0
  -6  -5   0 128.562 7.19917   0
   6   5   0 119.196  7.4279   0
   6   5   0  118.72 7.22325   0
   6   5   0 109.709 7.44596   0
  -6  -5  -1 108.079 6.30234   0
  -6  -5  -1 106.313 6.37368   0
   6   5   1  111.95   6.558   0
   6   5   1 93.1438   6.558   0
  -6  -5  -2 84.4786 5.13469   0
  -6  -5  -2 86.0334 5.05437   0
   6   5   2 76.5614 5.32402   0
   6   5   2 88.4774  5.3527   0
  -6  -5  -3 60.1577  3.5058   0
   6   5   3 54.4105 3.75002   0
   6   5   3 53.0484 3.70117   0
  -6  -4   4 9.23692  0.8852   0
   6   4  -4 7.75791 1.07214   0
   6   4  -4 9.81972 0.93469   0
  -6  -4   3 162.756 9.36457   0
   6   4  -3  158.59 9.49571   0
   6   4  -3 134.609 9.49571   0
   6   4  -3 163.293 9.28112   0
  -6  -4   2 21.7927 1.46089   0
   6   4  -2 21.0369  1.6578   0
   6   4  -2 20.8209 1.64509   0
   6   4  -2 23.8316 1.41008   0
  -6  -4   1 236.136  13.286   0
   6   4  -1  212.94 13.4316   0
   6   4  -1 214.383 13.4316   0
  -6  -4   0 30.5169 1.94088   0
  -6  -4   0 33.2569 1.87372   0
  -6  -4   0 33.2234 1.92745   0
   6   4   0 26.4403 1.98789   0
   6   4   0 31.3429 2.12221   0
   6   4   0  25.762 2.08863   0
  -6  -4  -1 243.245 14.6762   0
  -6  -4  -1 243.815 14.6695   0
  -6  -4  -1 254.208   14.61   0
   6   4   1 224.213 14.8615   0
   6   4   1 260.801 14.8814   0
   6   4   1 244.331 14.7424   0
  -6  -4  -2 21.7673 1.37197   0
  -6  -4  -2   23.26  1.4863   0
   6   4   2 21.1702 1.54982   0
   6   4   2 22.6883 1.70226   0
   6   4   2 21.0305 1.79118   0
  -6  -4  -3 162.816 9.87124   0
  -6  -4  -3 165.928 10.0501   0
   6   4   3 164.056 10.0799   0
   6   4   3 165.749 9.85932   0
   6   4   3 159.251 10.0322   0
  -6  -4  -4 9.91869 1.04465   0
  -6  -4  -4 9.81972 0.86871   0
   6   4   4 9.97367 0.98417   0
   6   4   4 9.67677 1.09413   0
   6   4   4  10.617 0.80823   0
  -6  -3   5 2.52912 0.39033   0
  -6  -3   5 2.92479 0.57747   0
   6   3  -5 3.59851 0.65233   0
   6   3  -5 3.80169 0.72184   0
   6   3  -5 3.27234 0.75927   0
  -6  -3   4  136.42 8.08768   0
  -6  -3   4 139.887 8.17643   0
   6   3  -4 116.653 8.26517   0
   6   3  -4 144.348 8.26517   0
  -6  -3   3 10.4975 0.81547   0
  -6  -3   3 10.7823 0.77663   0
   6   3  -3 9.68205 0.93843   0
   6   3  -3 10.1933 0.95138   0
   6   3  -3 10.2386 0.69897   0
  -6  -3   2 345.531 20.0974   0
  -6  -3   2 343.541 20.0904   0
   6   3  -2 309.818 20.2226   0
   6   3  -2 335.232 20.0347   0
   6   3  -2 346.958 20.0347   0
  -6  -3   1 20.3855 1.21073   0
  -6  -3   1 20.2907 1.25449   0
  -6  -3   1 17.0524 1.18156   0
   6   3  -1 15.4624 1.34931   0
   6   3  -1 16.5856 1.40037   0
   6   3  -1  18.336 1.29096   0
   6   3  -1 19.3863 1.20344   0
  -6  -3   0  458.29 27.8868   0
  -6  -3   0 494.623 27.8498   0
  -6  -3   0 476.086 27.9313   0
   6   3   0 457.831 28.0055   0
   6   3   0 409.412 28.0425   0
   6   3   0  489.81 28.0796   0
   6   3   0 492.361 28.0129   0
  -6  -3  -1 18.0954 1.21803   0
  -6  -3  -1 19.3717 1.15238   0
  -6  -3  -1 19.9844 1.23991   0
   6   3   1 15.4186 1.32743   0
   6   3   1 17.2128 1.40766   0
   6   3   1 19.6416 1.48789   0
  -6  -3  -2 335.037 20.9046   0
  -6  -3  -2 349.303 21.0438   0
  -6  -3  -2 347.187 20.8698   0
  -6  -3  -2 340.194 20.8002   0
   6   3   2 370.736 21.1064   0
   6   3   2 357.354 20.9185   0
   6   3   2 349.324 21.0646   0
  -6  -3  -3 11.9731  1.0161   0
  -6  -3  -3 11.2224 0.91902   0
   6   3   3 11.5913 1.08729   0
   6   3   3 11.2806 0.95785   0
   6   3   3 12.1155  0.8543   0
  -6  -3  -4 150.731 8.83906   0
  -6  -3  -4 145.288 8.89231   0
   6   3   4  145.72  8.7444   0
   6   3   4 139.975 8.82723   0
  -6  -3  -5 2.70022 0.46519   0
  -6  -3  -5 2.97826 0.56143   0
   6   3   5 3.99953 0.51331   0
   6   3   5 3.03708 0.42776   0
  -6  -2   5 76.0862 4.83685   0
  -6  -2   5  72.828 4.71326   0
   6   2  -5 82.7432 4.80876   0
   6   2  -5 79.6366 5.02785   0
  -6  -2   4 65.5288 4.05914   0
  -6  -2   4  65.272 3.95891   0
   6   2  -4 67.9781 4.01529   0
   6   2  -4 68.5982 4.13431   0
   6   2  -4  56.972  4.1531   0
  -6  -2   3 197.002  11.049   0
  -6  -2   3 190.903 10.9799   0
   6   2  -3 185.545 11.1043   0
   6   2  -3 160.391 11.0767   0
   6   2  -3 190.489 11.0006   0
   6   2  -3 173.085   10.89   0
  -6  -2   2 149.768 8.15119   0
  -6  -2   2 147.275 8.12873   0
   6   2  -2 145.022 8.12873   0
   6   2  -2 128.795 8.00149   0
   6   2  -2 113.338 8.15868   0
   6   2  -2 122.388 8.21107   0
  -6  -2   1 240.228 15.4039   0
  -6  -2   1 289.028 15.5223   0
   6   2  -1 276.891 15.5696   0
   6   2  -1 247.409 15.6406   0
   6   2  -1 229.015 15.5696   0
   6   2  -1 270.586 15.5696   0
  -6  -2   0 185.116 12.0731   0
  -6  -2   0 212.196 12.1615   0
   6   2   0 227.613 12.2902   0
   6   2   0 211.722 12.2339   0
   6   2   0 175.486 12.2178   0
  -6  -2  -1  268.74 16.9822   0
  -6  -2  -1 294.631 17.0058   0
  -6  -2  -1 271.162 16.9664   0
   6   2   1 270.342  17.069   0
   6   2   1 312.978 17.1716   0
   6   2   1 288.034 17.2031   0
  -6  -2  -2 135.921 8.50299   0
  -6  -2  -2 132.425 8.61526   0
  -6  -2  -2  157.47 8.59281   0
  -6  -2  -2 148.069 8.69011   0
   6   2   2 147.627 8.69011   0
   6   2   2  130.06  8.6452   0
   6   2   2 148.323 8.60778   0
  -6  -2  -3 187.142 11.5745   0
  -6  -2  -3  201.78 11.4639   0
  -6  -2  -3 185.635 11.5883   0
   6   2   3 194.333 11.5399   0
   6   2   3 185.904 11.5469   0
   6   2   3 196.124 11.4985   0
  -6  -2  -4 66.2805 4.25959   0
  -6  -2  -4 66.7691 4.29091   0
   6   2   4 70.4775 4.22827   0
   6   2   4 67.6523 4.22827   0
   6   2   4 71.1477 4.17816   0
  -6  -2  -5 75.9065 4.97729   0
  -6  -2  -5 84.4566 5.05594   0
   6   2   5 79.8669 4.90426   0
   6   2   5 82.3668 4.96605   0
  -6  -1   5 97.9616 6.16246   0
  -6  -1   5 101.985    6.29   0
   6   1  -5 102.831  6.2726   0
   6   1  -5 106.397 6.44652   0
  -6  -1   4 48.2584 3.02184   0
  -6  -1   4 47.7255 2.90486   0
   6   1  -4 44.8402 3.08682   0
   6   1  -4 47.2511 3.15181   0
   6   1  -4 47.1667 2.98285   0
   6   1  -4 47.1992 3.05433   0
  -6  -1   3 317.745 17.7547   0
  -6  -1   3 302.587 17.8124   0
   6   1  -3  303.87 17.8412   0
   6   1  -3 301.043 17.7907   0
   6   1  -3 258.784 17.8196   0
  -6  -1   2 134.295  8.1048   0
  -6  -1   2 150.277 8.15978   0
   6   1  -2 141.842 8.16763   0
   6   1  -2 133.297 8.16763   0
   6   1  -2 129.771 8.03412   0
   6   1  -2 115.423  8.0891   0
  -6  -1   1 445.535 25.0935   0
   6   1  -1  374.01 25.0603   0
   6   1  -1 444.903 25.1517   0
   6   1  -1  433.32 25.2265   0
   6   1  -1 402.228 25.1434   0
  -6  -1   0 207.415 12.4846   0
  -6  -1   0  201.22 12.5439   0
  -6  -1   0 199.931 12.4422   0
   6   1   0 224.884 12.5609   0
  -6  -1  -1 486.208 26.8468   0
  -6  -1  -1 418.622 26.8301   0
  -6  -1  -1 427.197 26.8052   0
  -6  -1  -1 406.665 26.8301   0
   6   1   1 402.037 26.9548   0
   6   1   1 507.537 26.9382   0
   6   1   1 500.126   26.88   0
  -6  -1  -2 124.446 8.30899   0
  -6  -1  -2  134.57 8.37968   0
  -6  -1  -2 141.583 8.34826   0
   6   1   2 137.868 8.30899   0
   6   1   2 139.926 8.34041   0
   6   1   2 150.591 8.41109   0
  -6  -1  -3  287.63 17.6393   0
  -6  -1  -3 322.007 17.5455   0
  -6  -1  -3 263.926 17.6032   0
  -6  -1  -3 283.375 17.6104   0
   6   1   3 302.067 17.6249   0
   6   1   3  302.45 17.5528   0
   6   1   3 296.702 17.5888   0
  -6  -1  -4 39.0824 2.82688   0
  -6  -1  -4 45.9514 2.87237   0
  -6  -1  -4 45.4055 2.88537   0
   6   1   4 46.4128 2.78139   0
   6   1   4 45.9124 2.82038   0
   6   1   4 47.1862 2.85937   0
  -6  -1  -5  102.93 6.38275   0
  -6  -1  -5 101.272 6.36536   0
  -6  -1  -5 97.6718 6.30739   0
   6   1   5 106.849 6.35956   0
   6   1   5 106.484  6.2726   0
   6   1   5 107.614 6.31898   0
  -6   0   5 0.48641 0.30474   0
  -6   0   5 0.56845 0.17581   0
   6   0  -5-0.10549  0.4571   0
   6   0  -5 0.76184 0.29888   0
  -6   0   4 229.453 13.8879   0
  -6   0   4 243.934 13.8023   0
   6   0  -4 230.605 13.8945   0
   6   0  -4 217.514 13.9603   0
  -6   0   3 0.47571 0.24151   0
  -6   0   3-0.04391 0.21224   0
   6   0  -3 0.37325 0.30006   0
   6   0  -3  1.1417 0.26347   0
   6   0  -3 0.43911 0.26347   0
  -6   0   2 506.302  29.332   0
  -6   0   2 482.624  29.292   0
  -6   0   2 484.868 29.1643   0
   6   0  -2  456.67  29.308   0
   6   0  -2 493.301 29.3639   0
   6   0  -2 520.333  29.308   0
  -6   0   1 0.01692 0.12691   0
  -6   0   1 0.15229 0.07615   0
  -6   0   1 0.21998 0.21152   0
   6   0  -1 0.64301 0.35535   0
   6   0  -1 0.14383  0.2369   0
   6   0  -1 0.27074 0.11845   0
   6   0  -1 0.15229 0.20306   0
  -6   0   0  754.32 48.1985   0
  -6   0   0 734.116 48.1466   0
   6   0   0 832.783 48.2848   0
   6   0   0 863.419  48.233   0
   6   0   0 863.462 48.2244   0
  -6   0  -1 0.15229 0.11845   0
  -6   0  -1 0.09307 0.20306   0
  -6   0  -1 0.36381 0.21998   0
  -6   0  -1 0.28766 0.15229   0
   6   0   1 0.08461 0.33843   0
   6   0   1 0.21152 0.18613   0
   6   0   1 0.05076 0.22844   0
  -6   0  -2 519.199 30.6576   0
  -6   0  -2 485.738 30.6257   0
  -6   0  -2 496.112 30.6017   0
   6   0   2 507.699 30.6017   0
   6   0   2 556.924 30.6097   0
   6   0   2 518.089 30.7135   0
  -6   0  -3 0.16101 0.21224   0
  -6   0  -3-0.02196 0.21224   0
   6   0   3  0.0805  0.1171   0
   6   0   3 0.81236 0.25615   0
   6   0   3 0.83432 0.18296   0
  -6   0  -4  221.16 13.4338   0
  -6   0  -4 236.345 13.4798   0
  -6   0  -4 207.878 13.4272   0
   6   0   4 227.202 13.4601   0
   6   0   4 226.906 13.3811   0
   6   0   4 221.581 13.3548   0
  -6   0  -5 0.08204 0.26371   0
  -6   0  -5-0.25785 0.35162   0
  -6   0  -5 0.22855 0.34576   0
   6   0   5  0.0879 0.15823   0
   6   0   5 0.25199 0.28716   0
   6   0   5 0.12307 0.19339   0
  -6   1   5 106.391 6.47551   0
  -6   1   5 105.585 6.35377   0
   6  -1  -5 104.472 6.56247   0
   6  -1  -5  104.53  6.4871   0
  -6   1   4 47.1732 2.94385   0
  -6   1   4 43.0011 2.85937   0
   6  -1  -4 46.7637 2.96985   0
   6  -1  -4 46.3283 3.02184   0
  -6   1   3 315.106 18.6201   0
  -6   1   3 325.541 18.5552   0
   6  -1  -3 294.906 18.6273   0
   6  -1  -3 304.397 18.6489   0
  -6   1   2  140.57 8.33255   0
  -6   1   2 136.965 8.23831   0
   6  -1  -2 128.271 8.31685   0
   6  -1  -2 139.258  8.4425   0
   6  -1  -2 142.564 8.30114   0
   6  -1  -2 138.017  8.2069   0
  -6   1   1 423.549 27.4866   0
  -6   1   1 453.005 27.5364   0
  -6   1   1 471.825 27.6029   0
  -6   1   1 458.389 27.5281   0
   6  -1  -1 461.945 27.8106   0
   6  -1  -1 486.083 27.5447   0
   6  -1  -1 525.078 27.5115   0
   6  -1  -1 419.519 27.6029   0
  -6   1   0  227.68 12.8406   0
  -6   1   0 186.853 12.7982   0
  -6   1   0 215.993  12.866   0
   6  -1   0  232.52 13.2728   0
   6  -1   0 215.179 12.8321   0
   6  -1   0 210.822 12.8321   0
  -6   1  -1 474.326 29.2065   0
  -6   1  -1 472.448 29.2315   0
  -6   1  -1 517.301 29.2065   0
   6  -1   1 495.381 29.2564   0
   6  -1   1 491.725 29.1484   0
   6  -1   1 470.163 29.3977   0
   6  -1   1 508.377  29.165   0
  -6   1  -2 135.135 8.33255   0
  -6   1  -2 132.033 8.24617   0
  -6   1  -2 136.714 8.37968   0
  -6   1  -2 140.279 8.18334   0
   6  -1   2 135.952  8.2069   0
   6  -1   2 141.865 8.26187   0
   6  -1   2 140.263 8.40324   0
   6  -1   2 137.522 8.23046   0
  -6   1  -3 282.633 17.5888   0
  -6   1  -3 315.863 17.6681   0
  -6   1  -3 292.007 17.7403   0
  -6   1  -3 278.746 17.5816   0
   6  -1   3 289.029 17.5528   0
   6  -1   3 299.796 17.5528   0
   6  -1   3 302.154 17.6826   0
  -6   1  -4 45.9124 2.92436   0
  -6   1  -4 45.3276 2.89836   0
  -6   1  -4 42.6437 3.04783   0
   6  -1   4 48.4794 2.96985   0
   6  -1   4 47.1797 2.84638   0
   6  -1   4 46.7508 2.83338   0
  -6   1  -5 96.1819 6.31319   0
  -6   1  -5 96.3326 6.31319   0
  -6   1  -5 110.252 6.37116   0
   6  -1   5 103.573 6.23782   0
   6  -1   5 107.463 6.38275   0
   6  -1   5 106.913 6.26101   0
  -6   2   5 79.1647 5.07279   0
  -6   2   5 84.0578 4.97167   0
   6  -2  -5 81.1141  5.1065   0
   6  -2  -5 83.2544 5.20761   0
  -6   2   4 70.5839 4.47884   0
  -6   2   4 75.9523 4.42246   0
   6  -2  -4 74.6869 4.57906   0
   6  -2  -4 66.4371 4.50389   0
  -6   2   3 193.676 11.6229   0
  -6   2   3  182.15 11.4846   0
  -6   2   3  202.72 11.6782   0
   6  -2  -3 191.221  11.699   0
   6  -2  -3  195.10 11.6713   0
  -6   2   2 134.663 8.46556   0
  -6   2   2 140.838  8.5479   0
   6  -2  -2 129.536  8.5479   0
   6  -2  -2 160.681 8.60029   0
   6  -2  -2 143.675  8.6976   0
  -6   2   1 261.495 15.4039   0
  -6   2   1 222.173 15.4197   0
  -6   2   1 278.406 15.4276   0
  -6   2   1 267.004 15.4749   0
  -6   2   1 228.312 15.4118   0
   6  -2  -1 280.561 15.7353   0
   6  -2  -1 276.252  15.467   0
  -6   2   0 187.543 11.0121   0
  -6   2   0 193.403  10.988   0
  -6   2   0 186.241  10.996   0
  -6   2   0 199.367 10.9478   0
   6  -2   0 198.523  10.996   0
   6  -2   0 176.973 11.4301   0
   6  -2   0 164.169 11.0443   0
   6  -2   0  164.41 11.0925   0
  -6   2  -1 258.662 15.5933   0
  -6   2  -1 268.669 15.5538   0
  -6   2  -1 270.847 15.5617   0
  -6   2  -1 228.352 15.5144   0
   6  -2   1 247.094 15.6643   0
   6  -2   1 289.202 15.5144   0
   6  -2   1 271.344 15.5223   0
   6  -2   1 239.936 15.5144   0
   6  -2   1 271.494 15.8616   0
  -6   2  -2 130.906 8.27095   0
  -6   2  -2  132.41 8.36826   0
  -6   2  -2 139.214 8.30838   0
  -6   2  -2  123.87 8.27095   0
   6  -2   2 150.838  8.4955   0
   6  -2   2  141.16 8.24101   0
   6  -2   2 143.001 8.23353   0
   6  -2   2 143.084 8.30089   0
  -6   2  -3 184.356 11.0836   0
  -6   2  -3 172.394 10.9177   0
  -6   2  -3 164.864 10.9522   0
  -6   2  -3 191.125 11.0075   0
   6  -2   3 188.725 11.0905   0
   6  -2   3 185.407 10.9107   0
   6  -2   3  187.28 10.9315   0
   6  -2   3 187.412 10.8762   0
  -6   2  -4 58.8763 4.00276   0
  -6   2  -4 64.7082 4.15937   0
  -6   2  -4 66.9633 4.09046   0
   6  -2   4 65.8545 3.94639   0
   6  -2   4 66.6062 3.95265   0
   6  -2   4 67.0385 4.11552   0
  -6   2  -5 81.5466 4.83685   0
  -6   2  -5 71.5078  4.7919   0
  -6   2  -5 74.8166 4.96044   0
   6  -2   5 76.9289 4.72449   0
   6  -2   5 82.5016 4.89864   0
   6  -2   5 79.8276 4.72449   0
  -6   3   5 2.96222 0.42241   0
  -6   3   5 2.78042 0.55608   0
   6  -3  -5 4.67325   0.786   0
   6  -3  -5 2.87132 0.47588   0
  -6   3   4 155.358 9.48395   0
  -6   3   4 151.382 9.36562   0
   6  -3  -4 165.824 9.58452   0
   6  -3  -4 153.258 9.53719   0
  -6   3   3 10.3422 0.82841   0
  -6   3   3 11.5848 0.93196   0
  -6   3   3 11.5201 0.84135   0
  -6   3   3 11.5524  0.7378   0
   6  -3  -3 11.4359 0.97079   0
   6  -3  -3 10.5752 0.88666   0
   6  -3  -3 13.0863 0.99021   0
  -6   3   2 353.256 21.0577   0
  -6   3   2 323.416 21.1064   0
  -6   3   2 332.845 21.0786   0
  -6   3   2 348.043 21.0646   0
   6  -3  -2 355.127 21.2665   0
   6  -3  -2 409.609 21.2386   0
   6  -3  -2 356.568 21.1273   0
  -6   3   1 18.8904 1.20344   0
  -6   3   1 19.7291 1.20344   0
  -6   3   1 19.4884 1.23991   0
   6  -3  -1 18.0005 1.22532   0
  -6   3   0 472.623 28.3243   0
  -6   3   0 488.009 28.3021   0
  -6   3   0 489.877 28.3317   0
   6  -3   0 498.982 28.3021   0
   6  -3   0  440.28 28.6135   0
   6  -3   0 463.362 28.3391   0
  -6   3  -1 19.7948  1.2472   0
  -6   3  -1 18.2558 1.22532   0
  -6   3  -1 19.2623 1.29826   0
   6  -3   1 19.4374 1.20344   0
   6  -3   1 19.8458 1.37119   0
   6  -3   1 18.7591 1.72858   0
  -6   3  -2 325.622 19.8051   0
  -6   3  -2  312.10 19.8816   0
  -6   3  -2 327.034 19.8051   0
   6  -3   2 354.947 20.0765   0
   6  -3   2 337.417 19.8468   0
   6  -3   2 333.304 19.7564   0
   6  -3   2 335.295 19.7633   0
  -6   3  -3 10.8858  0.8996   0
  -6   3  -3 9.70146 0.78958   0
  -6   3  -3 10.4134 0.73133   0
  -6   3  -3 11.5977 0.80252   0
   6  -3   3 10.4975 0.75722   0
   6  -3   3 11.1059 0.99668   0
   6  -3   3 11.2224  0.6925   0
  -6   3  -4 147.241 8.50774   0
  -6   3  -4 130.042 8.47816   0
  -6   3  -4  136.71 8.59649   0
   6  -3   4 145.856   8.419   0
   6  -3   4 141.602 8.60832   0
  -6   3  -5 3.05846   0.524   0
  -6   3  -5   3.791 0.60421   0
  -6   3  -5 3.36859 0.66302   0
   6  -3   5 3.24561 0.44915   0
   6  -3   5  4.7588 0.66837   0
  -6   4   4 10.1881  0.8907   0
   6  -4  -4  10.551 0.94019   0
  -6   4   3 181.652 10.5806   0
  -6   4   3 170.696 10.4971   0
   6  -4  -3  168.98 10.6044   0
   6  -4  -3 158.536  10.515   0
   6  -4  -3 194.248 10.6879   0
  -6   4   2 23.7427 1.42913   0
  -6   4   2 23.9841 1.47995   0
   6  -4  -2  20.173 1.47995   0
   6  -4  -2 22.9424 1.61969   0
  -6   4   1 246.655 14.4643   0
  -6   4   1 239.532 14.4776   0
  -6   4   1 245.933 14.4378   0
   6  -4  -1 238.512 14.6166   0
   6  -4  -1  239.75 14.4577   0
  -6   4   0 33.8614 1.98789   0
  -6   4   0 31.1817 1.99461   0
  -6   4   0  32.216 1.95432   0
   6  -4   0 29.3819 2.18265   0
   6  -4   0 30.2348  1.9476   0
  -6   4  -1 238.982 13.8421   0
  -6   4  -1  234.62 13.8156   0
  -6   4  -1 241.922 13.8884   0
   6  -4   1 246.132 13.7957   0
   6  -4   1 193.623 14.1267   0
  -6   4  -2 23.0186 1.44184   0
  -6   4  -2 23.1012 1.44184   0
  -6   4  -2 22.6629 1.54347   0
   6  -4   2 22.7137 1.39738   0
   6  -4   2 20.4843 1.78483   0
   6  -4   2 21.2909 2.00079   0
  -6   4  -3 144.862 9.23939   0
  -6   4  -3 162.041 9.26919   0
  -6   4  -3 143.216 9.29304   0
  -6   4  -3 155.305 9.37649   0
   6  -4   3 159.985 9.51359   0
   6  -4   3 160.074 9.20362   0
  -6   4  -4 9.47884 0.91819   0
  -6   4  -4 9.94618 0.80273   0
  -6   4  -4 8.53315 0.80273   0
   6  -4   4 10.6554 1.02266   0
  -6   5   3 64.3961  3.8477   0
   6  -5  -3 62.4858 3.87484   0
   6  -5  -3 60.7546 3.94539   0
  -6   5   2 88.9191 5.22075   0
  -6   5   2 89.8657 5.17485   0
   6  -5  -2 79.2177 5.29533   0
   6  -5  -2 85.1384 5.20928   0
  -6   5   1 106.718 6.26072   0
  -6   5   1 108.002 6.30234   0
   6  -5  -1 99.4283 6.37368   0
   6  -5  -1 101.931 6.26666   0
  -6   5   0 117.925 7.16907   0
  -6   5   0 119.105 7.10888   0
  -6   5   0 118.852 7.14499   0
   6  -5   0 117.546 7.10286   0
  -6   5  -1 104.571 6.23693   0
  -6   5  -1 102.342 6.31423   0
  -6   5  -1 106.272 6.26666   0
   6  -5   1 100.873 6.21315   0
  -6   5  -2  81.088 4.96832   0
  -6   5  -2 83.4918 5.07159   0
  -6   5  -2 82.7059 4.97979   0
   6  -5   2 80.6118  4.9339   0
  -6   5  -3 56.7441 3.61434   0
  -6   5  -3 58.1768 3.49495   0
  -6   5  -3 58.0249 3.48952   0
   6  -5   3 56.8526 3.44068   0
   6  -5   3 54.1283 3.84227   0
  -6   6   1  12.531 0.80211   0
  -6   6   1 11.0118 0.84461   0
   6  -6  -1 10.8737 0.80742   0
  -6   6   0 103.877 6.05486   0
  -6   6   0 101.032 6.08707   0
   6  -6   0 96.1961 6.04413   0
  -6   6  -1 11.8723 0.80742   0
  -6   6  -1 12.2442  0.8393   0
  -6   6  -1  11.203 0.93491   0
   6  -6   1 10.5018 0.78618   0
  -7  -6   0 13.3386  0.8592   0
   7   6   0 11.3949 1.15259   0
   7   6   0 11.3949 1.18403   0
   7   6   0 10.9339 0.86444   0
  -7  -5   3 48.0847 2.81761   0
   7   5  -3 40.6064  3.1142   0
   7   5  -3 48.5137 3.07713   0
  -7  -5   2 58.8786 3.40856   0
   7   5  -2 50.3069 3.64883   0
   7   5  -2 58.6216 3.43091   0
   7   5  -2 54.7492 3.63766   0
  -7  -5   1 129.474 7.25726   0
   7   5  -1 127.803 7.28617   0
   7   5  -1  108.09 7.47122   0
   7   5  -1 116.856   7.477   0
  -7  -5   0 88.8725 4.82748   0
  -7  -5   0 80.7564 4.86844   0
   7   5   0 78.9835 5.03228   0
   7   5   0  69.662 5.06154   0
  -7  -5  -1 138.275 7.89335   0
  -7  -5  -1 132.134 7.95696   0
   7   5   1  135.76 8.11888   0
   7   5   1  119.95 8.15357   0
  -7  -5  -2 60.8288 3.67118   0
  -7  -5  -2 55.9841 3.58178   0
   7   5   2 57.0011 3.87234   0
   7   5   2 62.2369 3.86117   0
  -7  -5  -3 50.2456 3.09301   0
   7   5   3  49.001 3.28368   0
   7   5   3 47.0467 3.31546   0
   7   4  -4 87.1936 6.22696   0
   7   4  -4 111.249 6.22696   0
  -7  -4   3 9.01426 0.71303   0
   7   4  -3 8.44616 0.93911   0
   7   4  -3  7.7969 0.98548   0
  -7  -4   2 155.556  8.8498   0
   7   4  -2  143.39 9.00387   0
   7   4  -2 129.857 8.97922   0
   7   4  -2 156.283 8.78817   0
  -7  -4   1 12.7044 0.94867   0
   7   4  -1 12.3839 1.13455   0
   7   4  -1 12.8198 1.13455   0
  -7  -4   0 155.138 9.33792   0
  -7  -4   0 154.508 9.29243   0
  -7  -4   0 162.858 9.25994   0
   7   4   0 165.704 9.48738   0
   7   4   0 151.649 9.38341   0
   7   4   0 137.931 9.47438   0
  -7  -4  -1 13.8262 1.08327   0
  -7  -4  -1 14.8774 1.01917   0
  -7  -4  -1 15.5889  1.1025   0
   7   4   1 18.9605 1.38454   0
   7   4   1 15.5632 1.31403   0
   7   4   1 16.4542 1.19865   0
  -7  -4  -2 156.357 9.25038   0
  -7  -4  -2 166.014  9.3305   0
  -7  -4  -2 154.409 9.34283   0
   7   4   2  165.33 9.54004   0
   7   4   2 155.993 9.56469   0
   7   4   2 130.362 9.38597   0
  -7  -4  -3 9.51859 0.82896   0
  -7  -4  -3 10.7128 1.03186   0
   7   4   3 9.51859 1.00287   0
   7   4   3 8.97368 1.04345   0
   7   4   3 10.3707 0.87534   0
  -7  -4  -4 111.431 6.69895   0
  -7  -4  -4 108.985 6.80085   0
   7   4   4  114.51 6.86521   0
   7   4   4  109.50 6.65068   0
   7   4   4 102.356  6.7794   0
  -7  -3   4 9.13957 0.81727   0
  -7  -3   4 9.23166 0.71942   0
   7   3  -4 9.19712 0.89209   0
   7   3  -4  7.0964 0.98993   0
  -7  -3   3 164.153 10.0317   0
  -7  -3   3 172.585 10.0066   0
   7   3  -3 161.386 10.1447   0
  -7  -3   2 2.52081 0.39661   0
  -7  -3   2 2.81659 0.38316   0
   7   3  -2 2.29898 0.50416   0
   7   3  -2 2.29226 0.49072   0
   7   3  -2 3.16614 0.41005   0
  -7  -3   1 241.098 15.3771   0
  -7  -3   1 273.532 15.4193   0
  -7  -3   1 278.581 15.4755   0
   7   3  -1 256.622 15.6021   0
   7   3  -1 275.874 15.4544   0
   7   3  -1 218.858 15.5458   0
   7   3  -1 260.377 15.5036   0
  -7  -3   0 2.02094  0.2785   0
  -7  -3   0 1.64246 0.30707   0
  -7  -3   0 1.88526 0.26422   0
   7   3   0 1.72816 0.35706   0
   7   3   0 2.42799 0.45703   0
   7   3   0 2.22089 0.44989   0
   7   3   0 1.39252 0.40704   0
  -7  -3  -1 280.711 15.8974   0
  -7  -3  -1 274.369 15.9888   0
  -7  -3  -1 255.322 15.9607   0
   7   3   1 276.633 16.1786   0
   7   3   1 231.205  16.045   0
   7   3   1 282.891 16.1505   0
  -7  -3  -2 2.65526 0.38989   0
  -7  -3  -2 4.02658 0.58483   0
  -7  -3  -2  2.6687 0.26216   0
  -7  -3  -2 2.60148 0.34955   0
   7   3   2 3.36108   0.484   0
   7   3   2 3.10564 0.56466   0
   7   3   2  3.0922 0.61172   0
  -7  -3  -3 168.312 10.5399   0
  -7  -3  -3  168.94 10.4646   0
  -7  -3  -3 173.256 10.3831   0
   7   3   3 169.705 10.5399   0
   7   3   3 173.206 10.4333   0
   7   3   3 186.638 10.6403   0
  -7  -3  -4 9.90504 0.92662   0
  -7  -3  -4 8.98993 0.86331   0
   7   3   4 9.35252 0.84604   0
   7   3   4 9.51943 1.00719   0
   7   3   4 11.2403 0.79424   0
  -7  -2   5  35.982 2.59557   0
   7   2  -5 44.5134 2.59557   0
   7   2  -5 38.7802 2.75984   0
  -7  -2   4 156.874 9.08016   0
  -7  -2   4 153.043 9.17138   0
   7   2  -4 154.119 9.23828   0
   7   2  -4 134.141 9.25045   0
   7   2  -4 142.205  9.2322   0
   7   2  -4 164.233 9.13489   0
  -7  -2   3 83.7273 5.00961   0
  -7  -2   3 81.2492 5.05637   0
   7   2  -3 76.9075 5.11648   0
   7   2  -3 85.4239 5.02965   0
  -7  -2   2 235.037  13.891   0
  -7  -2   2 234.417 13.9054   0
   7   2  -2  206.16 13.9774   0
   7   2  -2 249.446 13.9198   0
  -7  -2   1  162.45 10.3817   0
  -7  -2   1 193.823 10.5256   0
   7   2  -1 183.244 10.6089   0
   7   2  -1 168.781 10.5559   0
   7   2  -1 186.061 10.6392   0
   7   2  -1 151.137 10.5483   0
  -7  -2   0 206.116 13.6085   0
  -7  -2   0 224.872 13.7087   0
   7   2   0 242.911 13.8012   0
   7   2   0 241.401 13.7703   0
   7   2   0 225.396 13.7703   0
  -7  -2  -1  193.49 11.5025   0
  -7  -2  -1 180.851  11.457   0
   7   2   1 164.866 11.5479   0
   7   2   1 221.613 11.6388   0
   7   2   1 194.035 11.6766   0
  -7  -2  -2  228.07  13.999   0
  -7  -2  -2 238.877  13.963   0
  -7  -2  -2 235.066 14.0423   0
  -7  -2  -2 221.088 13.9846   0
  -7  -2  -2 218.134 13.8621   0
   7   2   2 243.344 14.0855   0
   7   2   2 247.516  13.999   0
  -7  -2  -3  80.087 5.04301   0
  -7  -2  -3  86.005 4.94282   0
  -7  -2  -3  82.525 5.05637   0
  -7  -2  -3 75.1976 5.00293   0
   7   2   3 82.6452 5.04301   0
   7   2   3 79.0917 5.02965   0
   7   2   3 85.5508 4.97621   0
  -7  -2  -4 153.079 9.40858   0
  -7  -2  -4 153.748 9.42074   0
   7   2   4 157.355 9.32951   0
   7   2   4 153.256 9.37817   0
   7   2   4 158.006 9.39641   0
  -7  -2  -5 40.0451 2.55176   0
  -7  -2  -5 38.0081 2.51343   0
   7   2   5 37.2086 2.46962   0
   7   2   5 38.6213 2.42034   0
  -7  -1   5 34.0338 2.39873   0
   7   1  -5  37.471 2.39873   0
   7   1  -5 37.4259 2.55677   0
  -7  -1   4 183.645 11.3873   0
  -7  -1   4 189.421 11.5007   0
   7   1  -4 195.776 11.5825   0
   7   1  -4 191.014 11.5322   0
   7   1  -4 189.635 11.4755   0
  -7  -1   3 47.6657 3.02606   0
  -7  -1   3 48.5214 2.97041   0
   7   1  -3 46.9492 3.05389   0
   7   1  -3 42.0032 3.01215   0
   7   1  -3 47.6727 3.01911   0
   7   1  -3 50.7474 3.10258   0
  -7  -1   2 329.057 19.7878   0
  -7  -1   2 350.157 19.8405   0
   7   1  -2 362.557 19.8858   0
   7   1  -2 332.284 19.8556   0
   7   1  -2 279.953 19.7576   0
  -7  -1   1 40.9747 2.41729   0
  -7  -1   1 36.6252 2.32983   0
  -7  -1   1 39.2015 2.50476   0
   7   1  -1 38.0247 2.55247   0
   7   1  -1 35.8698 2.48091   0
   7   1  -1 41.6745 2.71946   0
   7   1  -1  40.601 2.59223   0
  -7  -1   0 382.363 25.8581   0
  -7  -1   0 390.918 25.8095   0
   7   1   0 470.664 25.9959   0
   7   1   0 459.824 25.9229   0
   7   1   0  465.73 25.9797   0
  -7  -1  -1  42.907 2.54452   0
  -7  -1  -1 38.0485 2.60018   0
  -7  -1  -1 41.8255 2.59223   0
   7   1   1 39.5355 2.63994   0
  -7  -1  -2  345.31   21.22   0
  -7  -1  -2 356.941 21.1823   0
  -7  -1  -2 380.912 21.2049   0
  -7  -1  -2 299.447 21.1597   0
   7   1   2  364.57 21.2879   0
   7   1   2 364.592 21.1748   0
   7   1   2 369.273 21.2049   0
  -7  -1  -3 50.2396 2.97041   0
  -7  -1  -3 49.4188 3.03302   0
  -7  -1  -3 47.1162 2.99824   0
  -7  -1  -3 41.9336 3.01215   0
   7   1   3 49.1474 2.96346   0
   7   1   3 49.3701 3.05389   0
   7   1   3 47.4222 2.99128   0
  -7  -1  -4 164.826 10.5748   0
  -7  -1  -4  177.70 10.5874   0
  -7  -1  -4 176.572 10.5937   0
   7   1   4 191.663 10.6189   0
   7   1   4 183.097 10.5181   0
   7   1   4 158.055  10.537   0
  -7  -1  -5 35.5972  2.3818   0
  -7  -1  -5 32.4873 2.33665   0
  -7  -1  -5 37.2227 2.37616   0
   7   1   5 35.7214 2.26892   0
   7   1   5  38.137 2.38744   0
   7   1   5 37.1154 2.31972   0
  -7   0   5 109.464 6.98053   0
   7   0  -5 112.384 6.98624   0
   7   0  -5 119.017 7.07178   0
  -7   0   4   0.459 0.29963   0
  -7   0   4 0.49725 0.23588   0
   7   0  -4-0.19763 0.33788   0
   7   0  -4 0.07013 0.27413   0
  -7   0   3 222.112 13.8397   0
  -7   0   3  214.74 13.7762   0
   7   0  -3 260.802  13.748   0
   7   0  -3 237.066 13.8397   0
   7   0  -3 216.243 13.8538   0
   7   0  -3 224.806 13.8397   0
  -7   0   2 0.29102 0.14551   0
  -7   0   2 0.39057 0.26038   0
  -7   0   2-0.06127 0.17614   0
   7   0  -2 0.52842 0.26038   0
   7   0  -2 0.34462 0.26804   0
   7   0  -2 0.00766 0.22975   0
   7   0  -2 0.44418  0.1838   0
  -7   0   1 529.782 29.0181   0
  -7   0   1 513.017 29.0909   0
  -7   0   1  490.21 28.9534   0
   7   0  -1 500.004 29.3578   0
   7   0  -1 433.298 29.0909   0
   7   0  -1 457.261 29.1475   0
  -7   0   0   0.305 0.21433   0
  -7   0   0 0.63473 0.20608   0
   7   0   0 1.31068   0.305   0
   7   0   0 0.78311 0.32149   0
   7   0   0 0.89852 0.46163   0
   7   0   0 0.71717 0.28852   0
  -7   0  -1 502.875 29.3901   0
  -7   0  -1 526.555 29.4629   0
  -7   0  -1 545.957 29.4629   0
   7   0   1 491.852 29.5114   0
   7   0   1 527.898 29.4952   0
   7   0   1 432.716 29.3982   0
   7   0   1 427.912 29.6327   0
  -7   0  -2 0.25272 0.19146   0
  -7   0  -2 0.24507 0.16848   0
  -7   0  -2 0.16848 0.16082   0
  -7   0  -2 0.35994 0.21443   0
   7   0   2-0.28336 0.24507   0
   7   0   2  0.2757 0.17614   0
  -7   0  -3 241.235 13.6069   0
  -7   0  -3 221.392 13.5646   0
  -7   0  -3  240.67 13.6069   0
  -7   0  -3 199.561 13.5504   0
   7   0   3 224.623 13.5434   0
   7   0   3 224.136 13.6563   0
   7   0   3 233.468 13.5575   0
  -7   0  -4-0.08288 0.26138   0
  -7   0  -4 0.16575  0.2805   0
  -7   0  -4 0.75226 0.27413   0
   7   0   4 0.28688 0.17213   0
   7   0   4    0.51   0.306   0
   7   0   4  0.2805 0.19125   0
  -7   0  -5 108.238 6.64405   0
  -7   0  -5 115.492 6.67257   0
  -7   0  -5 99.8148 6.63835   0
   7   0   5 109.966 6.68398   0
   7   0   5 112.105 6.59843   0
   7   0   5 106.738 6.56421   0
  -7   1   5 35.6875 2.42695   0
  -7   1   5 35.1062 2.28585   0
   7  -1  -5 37.9903 2.46082   0
   7  -1  -5 37.7758 2.50597   0
  -7   1   4  182.09 11.2928   0
  -7   1   4 184.275 11.2109   0
   7  -1  -4  193.83 11.3243   0
   7  -1  -4 185.321  11.318   0
  -7   1   3 51.1509  3.1165   0
  -7   1   3 44.8553 3.18606   0
   7  -1  -3 48.7648  3.2278   0
   7  -1  -3 54.5526 3.21389   0
  -7   1   2 363.522 21.8155   0
  -7   1   2 365.859 21.7251   0
   7  -1  -2 360.914 21.9738   0
   7  -1  -2  378.01 21.7929   0
   7  -1  -2 355.795 21.7929   0
  -7   1   1 43.2966 2.53657   0
  -7   1   1 43.1853 2.60813   0
  -7   1   1 35.2813   2.465   0
   7  -1  -1 42.8911 2.54452   0
   7  -1  -1 40.3942 2.63199   0
   7  -1  -1 39.3764 2.83078   0
  -7   1   0 389.938 25.4936   0
  -7   1   0 395.155 25.4693   0
  -7   1   0 384.008 25.4207   0
   7  -1   0 446.968 25.4612   0
   7  -1   0 482.669 25.5989   0
   7  -1   0 466.573 25.8986   0
  -7   1  -1 47.8688 2.75921   0
  -7   1  -1 45.6503 2.88644   0
  -7   1  -1 46.1194 2.87849   0
   7  -1   1 41.6108 2.95005   0
   7  -1   1  47.344 2.85463   0
  -7   1  -2 363.062 21.3783   0
  -7   1  -2 336.317 21.2049   0
  -7   1  -2 365.225 21.3256   0
  -7   1  -2 339.083 21.2652   0
   7  -1   2 368.746 21.2652   0
   7  -1   2 348.385   21.22   0
   7  -1   2 372.311 21.4311   0
  -7   1  -3 44.3962 3.04693   0
  -7   1  -3 46.5596 2.90085   0
  -7   1  -3 43.2136 2.91476   0
  -7   1  -3 49.0431 2.97737   0
   7  -1   3 49.3979 2.88693   0
   7  -1   3 47.1509 3.03302   0
   7  -1   3 47.6518 2.87302   0
  -7   1  -4 192.602 10.8834   0
  -7   1  -4 173.348 10.8393   0
   7  -1   4 182.455 10.8016   0
   7  -1   4 188.086 10.8079   0
   7  -1   4 164.788 10.9212   0
  -7   1  -5 39.2489 2.37616   0
  -7   1  -5 36.2801 2.34794   0
  -7   1  -5 33.4807 2.31407   0
   7  -1   5 35.2529 2.27456   0
   7  -1   5 37.5726 2.42131   0
   7  -1   5 34.9933 2.25763   0
  -7   2   5 39.0759 2.66128   0
  -7   2   5 40.3243 2.54081   0
   7  -2  -5 44.9296 2.77627   0
   7  -2  -5 38.5283 2.69413   0
  -7   2   4 175.758 10.3452   0
  -7   2   4 158.827 10.4182   0
   7  -2  -4 165.322 10.4668   0
   7  -2  -4 187.697  10.479   0
  -7   2   3 81.7168    5.21   0
  -7   2   3 81.2759 5.29015   0
   7  -2  -3 95.2627 5.25675   0
   7  -2  -3 81.3895 5.32355   0
  -7   2   2 227.306 13.7252   0
  -7   2   2 226.427 13.6316   0
   7  -2  -2 232.674 13.8982   0
  -7   2   1  186.19 10.8815   0
  -7   2   1 184.728 10.8285   0
   7  -2  -1 175.467 11.1466   0
   7  -2  -1 178.322 10.8664   0
  -7   2   0 207.619 12.4835   0
  -7   2   0 209.545 12.4758   0
  -7   2   0 207.719 12.5066   0
   7  -2   0 211.464 12.4835   0
   7  -2   0 213.483 12.6068   0
   7  -2   0 203.257 12.9073   0
  -7   2  -1 186.515 10.4726   0
  -7   2  -1 177.239 10.4045   0
  -7   2  -1 154.515 10.4878   0
  -7   2  -1 182.987 10.4726   0
   7  -2   1 194.466 10.4575   0
   7  -2   1 150.524 10.7452   0
   7  -2   1 153.129  10.412   0
   7  -2   1 190.241 10.4347   0
   7  -2   1 181.404 10.5862   0
  -7   2  -2 213.768 13.7036   0
  -7   2  -2 214.791 13.6892   0
  -7   2  -2 221.737 13.7973   0
  -7   2  -2 228.733 13.7469   0
   7  -2   2 240.044  13.682   0
   7  -2   2  246.55 13.6676   0
   7  -2   2 241.219 13.7613   0
   7  -2   2 228.488 13.9486   0
  -7   2  -3 76.0526 4.94949   0
  -7   2  -3 75.3245 4.80255   0
  -7   2  -3 82.3914 4.89606   0
  -7   2  -3 75.1442 4.81591   0
   7  -2   3 81.6967 4.81591   0
   7  -2   3 86.3523 4.78919   0
   7  -2   3 78.0698 4.74911   0
   7  -2   3 79.2253 4.98957   0
  -7   2  -4 157.708 9.28694   0
  -7   2  -4 143.105 9.20788   0
  -7   2  -4 146.548 9.35384   0
   7  -2   4 159.307 9.17138   0
   7  -2   4 155.646 9.17747   0
   7  -2   4 155.038 9.34776   0
  -7   2  -5 33.5124 2.56271   0
  -7   2  -5 35.8998 2.39843   0
  -7   2  -5 39.9903 2.44224   0
   7  -2   5 37.0169  2.3382   0
   7  -2   5 38.2052 2.34915   0
   7  -2   5 40.1272 2.53533   0
  -7   3   4 9.26619 0.89784   0
  -7   3   4 11.2173 0.77122   0
   7  -3  -4 10.3655 0.96691   0
  -7   3   3 176.744 10.1886   0
  -7   3   3  176.28 10.1007   0
   7  -3  -3 148.952 10.1886   0
  -7   3   2 3.12581 0.26889   0
  -7   3   2 2.84348 0.34283   0
   7  -3  -2  2.2452 0.32939   0
   7  -3  -2 2.88381 0.53105   0
   7  -3  -2 2.35276 0.45711   0
  -7   3   1 259.153 15.8763   0
  -7   3   1 264.919 15.8271   0
  -7   3   1 264.532 15.8411   0
   7  -3  -1 275.051 15.8763   0
   7  -3  -1  265.06 16.1294   0
  -7   3   0 1.94239 0.23566   0
  -7   3   0 1.74958 0.29993   0
  -7   3   0 1.86384 0.26422   0
   7  -3   0 0.92835 0.49988   0
   7  -3   0 2.00666 0.23566   0
   7  -3   0 2.31373 0.39276   0
  -7   3  -1 252.305 15.8622   0
  -7   3  -1 264.546 15.8341   0
  -7   3  -1 257.747   15.82   0
   7  -3   1 293.859 16.3474   0
   7  -3   1 272.056  15.799   0
   7  -3   1 251.658 15.9044   0
  -7   3  -2 2.59476 0.39661   0
  -7   3  -2 3.50225 0.31594   0
  -7   3  -2 2.23848 0.32266   0
  -7   3  -2 2.68215 0.32266   0
   7  -3   2 2.64181 0.63188   0
   7  -3   2 2.93087 0.26216   0
   7  -3   2 2.37965  0.4235   0
  -7   3  -3 160.872 9.90626   0
  -7   3  -3 152.992 9.92508   0
  -7   3  -3 175.245 9.96273   0
  -7   3  -3 161.298  10.038   0
   7  -3   3 166.273 9.93763   0
   7  -3   3 169.956 10.1509   0
   7  -3   3 171.236 9.86235   0
  -7   3  -4 8.82878 0.88633   0
  -7   3  -4 9.73238 0.75971   0
  -7   3  -4 9.23741 0.82302   0
   7  -3   4 9.91079 0.96115   0
   7  -3   4 9.63453  0.7482   0
  -7   4   4 113.094 6.98321   0
   7  -4  -4 115.003 7.03684   0
  -7   4   3 9.65772 0.91012   0
  -7   4   3   10.22 0.79418   0
   7  -4  -3 9.46062 0.82896   0
   7  -4  -3 10.0635  0.9449   0
  -7   4   2 164.664 9.78039   0
  -7   4   2 164.707 9.84201   0
   7  -4  -2 162.051 9.98376   0
   7  -4  -2  163.37 9.84201   0
  -7   4   1 14.9607 0.93585   0
  -7   4   1 14.6466 0.98713   0
   7  -4  -1 14.2556  0.9743   0
   7  -4  -1  12.698 1.17942   0
  -7   4   0 156.613 9.22745   0
  -7   4   0 158.712 9.25994   0
  -7   4   0 154.651 9.25994   0
   7  -4   0  144.91 9.51337   0
   7  -4   0 154.839 9.22745   0
  -7   4  -1 14.4992 1.01917   0
  -7   4  -1 14.3325 0.94867   0
  -7   4  -1 15.1787 0.98072   0
   7  -4   1 13.5826 0.92944   0
   7  -4   1 12.0506 1.48069   0
  -7   4  -2 155.371 9.31201   0
  -7   4  -2 161.071 9.31817   0
  -7   4  -2 153.873 9.39829   0
   7  -4   2 168.898 9.84201   0
   7  -4   2 130.978 9.60166   0
   7  -4   2  161.33 9.27503   0
  -7   4  -3 9.05484 0.68984   0
  -7   4  -3 9.27512 0.71882   0
  -7   4  -3 9.02005 0.84056   0
   7  -4   3 11.0664  1.1362   0
   7  -4   3 9.14179 0.63767   0
  -7   4  -4 110.203 6.45759   0
  -7   4  -4  103.08 6.54877   0
   7  -4   4 104.319 6.64531   0
  -7   5   3 53.8047 3.18835   0
   7  -5  -3 51.3049 3.29957   0
   7  -5  -3 47.6028 3.19894   0
  -7   5   2 64.0809 3.74382   0
  -7   5   2 62.7398 3.79411   0
   7  -5  -2 59.8453 3.78853   0
   7  -5  -2  59.823 3.91705   0
  -7   5   1 131.284 7.82974   0
  -7   5   1  135.32 7.79505   0
   7  -5  -1 125.449 7.80661   0
   7  -5  -1 127.236 7.95696   0
  -7   5   0 78.6909 4.59342   0
  -7   5   0  78.451 4.55246   0
   7  -5   0  70.019 4.74556   0
   7  -5   0 73.0676 4.54661   0
  -7   5  -1 134.823 7.78926   0
  -7   5  -1  128.30 7.76035   0
  -7   5  -1 125.611 7.82396   0
   7  -5   1  127.71 7.73722   0
  -7   5  -2 58.3869 3.57619   0
  -7   5  -2 60.6779 3.59295   0
  -7   5  -2 56.5038 3.67118   0
   7  -5   2 58.1019 3.54266   0
  -7   5  -3 48.1748 2.91294   0
  -7   5  -3 48.5031 2.92883   0
  -7   5  -3 47.9735 3.03476   0
   7  -5   3 43.1115 3.30486   0
  -7   6   0 12.2384 0.81729   0
  -7   6   0 12.3485 0.85397   0
   7  -6   0 10.1009 0.81729   0
  -8  -5   2 41.9507 2.51813   0
   8   5  -2 38.6782  2.7949   0
   8   5  -2 39.6225 2.76234   0
   8   5  -2  41.663 2.53983   0
  -8  -5   1 56.1465 3.38719   0
  -8  -5   1 58.7486 3.48252   0
   8   5  -1 58.0644 3.42083   0
   8   5  -1 54.7053 3.61711   0
   8   5  -1  48.688  3.6059   0
  -8  -5   0 69.6418 4.02118   0
  -8  -5   0 65.2803 3.97013   0
   8   5   0 63.7036 4.16864   0
   8   5   0 61.8944  4.2367   0
  -8  -5  -1  60.717 3.68441   0
  -8  -5  -1 62.3489  3.7517   0
   8   5   1 58.2495 3.95359   0
   8   5   1 60.2571 3.88629   0
  -8  -5  -2 46.3954 2.87631   0
   8   5   2 45.1689 3.02826   0
   8   5   2 44.8107  3.0554   0
  -8  -4   3 148.921 8.38674   0
   8   4  -3 141.389   8.561   0
   8   4  -3 124.733 8.53852   0
  -8  -4   2 18.0379 1.23392   0
   8   4  -2 15.9396 1.42467   0
   8   4  -2 16.0231 1.40679   0
   8   4  -2 18.7591 1.16835   0
  -8  -4   1 197.822 11.4852   0
   8   4  -1 186.622 11.5904   0
   8   4  -1 174.759 11.5966   0
   8   4  -1 202.377 11.5099   0
  -8  -4   0 16.1666 1.20356   0
  -8  -4   0 17.4642 1.14715   0
  -8  -4   0 17.0191 1.10953   0
   8   4   0 18.3543 1.34147   0
   8   4   0 14.6621 1.26625   0
   8   4   0 17.2636 1.38535   0
  -8  -4  -1 201.238 12.4505   0
  -8  -4  -1 210.557 12.3639   0
  -8  -4  -1 197.061 12.4134   0
   8   4   1 213.831 12.5867   0
   8   4   1 215.471 12.6176   0
   8   4   1 204.375 12.4938   0
  -8  -4  -2 15.0693 1.13258   0
  -8  -4  -2  18.932 1.24584   0
  -8  -4  -2 18.1094 1.23988   0
   8   4   2 15.2422  1.3591   0
   8   4   2 19.2539 1.41275   0
   8   4   2  18.777 1.47236   0
  -8  -4  -3 149.432  8.7746   0
   8   4   3 160.911 8.94324   0
   8   4   3 136.155 8.78585   0
   8   4   3 131.945 8.92637   0
  -8  -3   4 101.783 5.92878   0
  -8  -3   4 93.2358 5.99018   0
   8   3  -4 96.5743 6.08509   0
  -8  -3   3 10.9755 0.90351   0
  -8  -3   3  11.976 0.87925   0
   8   3  -3 10.9209  1.0551   0
   8   3  -3 9.61722 1.01266   0
  -8  -3   2 213.726 12.4522   0
  -8  -3   2 203.002 12.4328   0
   8   3  -2 223.907 12.6205   0
   8   3  -2 186.615 12.5816   0
  -8  -3   1 16.1756 1.08738   0
  -8  -3   1 16.0135  1.1279   0
  -8  -3   1 15.6015 1.01309   0
   8   3  -1 13.9806 1.20895   0
   8   3  -1 15.7096 1.20895   0
   8   3  -1 16.0203 1.24947   0
   8   3  -1 13.6969 1.18869   0
  -8  -3   0  295.25  18.337   0
  -8  -3   0 301.276 18.4262   0
  -8  -3   0 273.774  18.337   0
   8   3   0 318.338 18.4673   0
   8   3   0 323.205  18.529   0
   8   3   0 328.285  18.529   0
   8   3   0 312.868 18.5221   0
  -8  -3  -1 15.0747  1.1144   0
  -8  -3  -1 16.4458 1.16843   0
   8   3   1 16.7497 1.31026   0
   8   3   1 18.1545 1.29675   0
   8   3   1 15.4665 1.24272   0
  -8  -3  -2 221.506 12.7693   0
  -8  -3  -2 209.681 12.7758   0
  -8  -3  -2 204.122 12.6658   0
   8   3   2 204.808   12.97   0
   8   3   2 242.902 12.9505   0
   8   3   2 192.601 12.8276   0
  -8  -3  -3 10.8057 0.93989   0
  -8  -3  -3 11.5334 1.01872   0
  -8  -3  -3 12.1276 0.84893   0
   8   3   3  11.685 0.93989   0
   8   3   3 12.2004  1.0551   0
   8   3   3 10.9391 1.02479   0
  -8  -3  -4 103.899 6.54287   0
  -8  -3  -4 112.468 6.52612   0
   8   3   4 99.3098 6.51495   0
   8   3   4 109.961 6.63777   0
   8   3   4 104.111 6.44238   0
  -8  -2   5 53.3057 3.62468   0
   8   2  -5 60.6296 3.74178   0
  -8  -2   4 40.5309 2.78367   0
  -8  -2   4 41.6609 2.68951   0
   8   2  -4 45.2979 2.74836   0
   8   2  -4 45.6274  2.8896   0
   8   2  -4  40.272 2.83664   0
  -8  -2   3 142.941 8.56915   0
  -8  -2   3 150.944 8.53698   0
   8   2  -3 155.699 8.55628   0
   8   2  -3 132.326 8.62705   0
   8   2  -3 121.654 8.55628   0
  -8  -2   2 100.879 6.11914   0
  -8  -2   2 99.4136 6.13297   0
   8   2  -2 91.5935 6.20903   0
   8   2  -2 108.036 6.16754   0
  -8  -2   1 205.994 11.8843   0
  -8  -2   1 184.695 11.7249   0
  -8  -2   1 181.834 11.8481   0
   8   2  -1 221.311 11.9857   0
   8   2  -1 196.782  11.935   0
   8   2  -1 182.168 11.8988   0
   8   2  -1 205.646 12.0001   0
  -8  -2   0 172.469 11.3139   0
  -8  -2   0 164.121 11.2035   0
   8   2   0 190.879 11.4832   0
   8   2   0 195.185 11.3507   0
   8   2   0 203.923 11.3875   0
   8   2   0 198.564 11.3654   0
  -8  -2  -1 200.092 12.2753   0
  -8  -2  -1 209.094 12.2464   0
  -8  -2  -1  199.99 12.3043   0
   8   2   1 221.912 12.4492   0
   8   2   1 189.844  12.355   0
  -8  -2  -2 110.739   6.534   0
  -8  -2  -2 101.184 6.46486   0
  -8  -2  -2 101.336 6.50634   0
  -8  -2  -2 108.285 6.47869   0
  -8  -2  -2 101.363 6.35423   0
   8   2   2 107.026 6.52017   0
   8   2   2 111.804 6.60314   0
   8   2   2 110.387 6.61006   0
  -8  -2  -3 154.837 8.86508   0
  -8  -2  -3 149.034 8.86508   0
  -8  -2  -3 153.511 8.77502   0
  -8  -2  -3 132.198 8.82648   0
   8   2   3 147.168 8.80718   0
   8   2   3 151.157 8.87152   0
   8   2   3 132.738 8.87152   0
  -8  -2  -4 41.9022 2.71305   0
  -8  -2  -4 42.0669 2.71893   0
   8   2   4 41.3078 2.63654   0
   8   2   4 43.3499 3.00142   0
   8   2   4 41.4196 2.68951   0
  -8  -2  -5 58.5272 3.68323   0
  -8  -2  -5 58.8306  3.6992   0
   8   2   5  59.746 3.60339   0
   8   2   5 55.8552 3.64597   0
  -8  -1   5 101.258 6.79439   0
   8   1  -5 120.507 6.88754   0
   8   1  -5 109.384 6.77795   0
  -8  -1   4 27.7959 2.09976   0
  -8  -1   4 30.0782 2.01455   0
   8   1  -4 30.9973 2.16062   0
   8   1  -4 32.2449  2.1241   0
   8   1  -4 35.3124 2.19714   0
  -8  -1   3 215.462 13.4104   0
  -8  -1   3 213.396 13.4639   0
   8   1  -3 212.607 13.4839   0
   8   1  -3 224.346 13.4237   0
   8   1  -3 223.123 13.4772   0
   8   1  -3 249.295 13.5107   0
  -8  -1   2 76.3924 4.75965   0
  -8  -1   2 79.8034 4.81734   0
   8   1  -2 66.6351 4.70917   0
   8   1  -2 86.4742 4.88946   0
   8   1  -2 76.5005 4.82455   0
  -8  -1   1 193.488 12.0144   0
  -8  -1   1  202.47 11.9158   0
  -8  -1   1  179.73 11.8249   0
   8   1  -1 184.733 11.9613   0
   8   1  -1 211.188 12.1053   0
   8   1  -1 213.545 12.2342   0
   8   1  -1 208.489 12.0447   0
  -8  -1   0 149.741 9.68858   0
  -8  -1   0 158.226 9.63458   0
  -8  -1   0  144.65 9.76572   0
   8   1   0  172.52 9.74258   0
   8   1   0 158.921 9.97399   0
   8   1   0  169.28   9.812   0
   8   1   0 174.132 9.79657   0
  -8  -1  -1 217.092 12.2266   0
  -8  -1  -1 218.783 12.1735   0
  -8  -1  -1  185.34 12.2493   0
   8   1   1 216.486 12.3555   0
   8   1   1 177.381 12.2797   0
  -8  -1  -2 98.4021  5.6611   0
  -8  -1  -2 96.4838 5.69715   0
  -8  -1  -2 95.1064 5.66831   0
   8   1   2 80.1496 5.77648   0
   8   1   2   89.64 5.67552   0
   8   1   2 96.6641 5.71879   0
  -8  -1  -3 244.576 13.4438   0
  -8  -1  -3 199.063 13.3903   0
  -8  -1  -3 225.416 13.4237   0
  -8  -1  -3 214.132 13.4371   0
   8   1   3 227.589 13.5173   0
   8   1   3 227.074 13.4304   0
   8   1   3 227.147 13.4037   0
  -8  -1  -4 28.4958 2.04498   0
  -8  -1  -4 31.6789 2.03281   0
  -8  -1  -4 31.8554 2.03281   0
   8   1   4 30.6138 1.96586   0
   8   1   4 31.7154 2.09976   0
   8   1   4 30.7416 2.00238   0
  -8  -1  -5 100.091 6.61357   0
  -8  -1  -5 112.891 6.65193   0
  -8  -1  -5 112.031 6.63549   0
   8   1   5 106.606 6.67384   0
   8   1   5 112.666 6.61357   0
   8   1   5 106.299 6.56426   0
  -8   0   5 0.08301 0.35972   0
   8   0  -5 0.52574 0.34312   0
   8   0  -5 0.01107  0.4704   0
  -8   0   4 163.002  10.355   0
  -8   0   4 156.439 10.4412   0
   8   0  -4 179.562 10.4843   0
   8   0  -4 189.172 10.4781   0
  -8   0   3 0.24389 0.27777   0
  -8   0   3-0.23034 0.23712   0
   8   0  -3 0.41326 0.30487   0
   8   0  -3 0.37939 0.31164   0
   8   0  -3 -0.0271 0.25744   0
  -8   0   2 414.596  23.837   0
  -8   0   2 399.059 23.7418   0
   8   0  -2 401.708 24.0199   0
   8   0  -2 404.797 23.8223   0
   8   0  -2 373.868 23.8662   0
  -8   0   1 0.60845 0.20025   0
   8   0  -1 1.47105 0.34658   0
   8   0  -1-0.11553 0.25416   0
   8   0  -1 0.29267 0.36969   0
   8   0  -1 0.10012 0.20795   0
   8   0  -1 0.52373 0.19255   0
  -8   0   0 584.797 40.5463   0
  -8   0   0 653.281 40.5934   0
  -8   0   0 634.902 40.6404   0
   8   0   0  722.04 40.6718   0
   8   0   0 730.383 40.7502   0
   8   0   0 736.342 40.5385   0
   8   0   0 715.085 40.9933   0
  -8   0  -1 0.77789 0.20025   0
  -8   0  -1 0.60845 0.20795   0
  -8   0  -1 -0.0077 0.16944   0
   8   0   1  0.0077 0.24646   0
   8   0   1 0.15404  0.3928   0
   8   0   1 0.18485 0.22335   0
   8   0   1-0.11553 0.29267   0
  -8   0  -2 416.668 24.1956   0
  -8   0  -2 401.115 24.1956   0
  -8   0  -2 425.128 24.2175   0
  -8   0  -2 404.248  24.159   0
   8   0   2 412.386 24.2249   0
   8   0   2 404.745 24.2029   0
   8   0   2 373.502 24.3566   0
  -8   0  -3 0.02032 0.22357   0
  -8   0  -3 0.37939 0.21679   0
  -8   0  -3 0.29809 0.18292   0
  -8   0  -3-0.15582 0.21002   0
   8   0   3 0.58263 0.20325   0
   8   0   3 0.48779 0.33874   0
   8   0   3 0.00677 0.17614   0
  -8   0  -4 169.084 10.4412   0
  -8   0  -4 162.558 10.4412   0
  -8   0  -4 182.868 10.4719   0
   8   0   4 183.705  10.435   0
   8   0   4 170.315 10.5335   0
   8   0   4 171.781 10.4104   0
  -8   0  -5 0.33205 0.32098   0
  -8   0  -5  0.2601 0.38185   0
  -8   0  -5 0.25457 0.30438   0
   8   0   5 0.35972 0.19923   0
   8   0   5-0.06641  0.2435   0
   8   0   5  0.7139 0.42059   0
  -8   1   5 100.162 6.58069   0
   8  -1  -5  109.68 6.61905   0
   8  -1  -5 110.332 6.62453   0
  -8   1   4 33.0362  2.1241   0
  -8   1   4 30.3825 2.19714   0
   8  -1  -4 34.3873 2.19714   0
   8  -1  -4 32.7136 2.24583   0
  -8   1   3 198.722 13.3502   0
  -8   1   3 238.552 13.2633   0
   8  -1  -3 225.028 13.4171   0
  -8   1   2 89.3227 5.69715   0
  -8   1   2 90.4189 5.61062   0
   8  -1  -2 102.657  5.6611   0
   8  -1  -2 90.5631 5.90629   0
  -8   1   1 208.444 11.7718   0
  -8   1   1  202.44 11.8324   0
   8  -1  -1 189.304 12.1053   0
   8  -1  -1 194.655  11.787   0
   8  -1  -1 185.923 11.8703   0
  -8   1   0 148.484 9.77343   0
  -8   1   0 149.664   9.812   0
   8  -1   0 172.181 9.88143   0
   8  -1   0 166.657 9.75801   0
   8  -1   0 176.354 10.1823   0
  -8   1  -1 208.625 12.4085   0
  -8   1  -1 206.791 12.4237   0
   8  -1   1 212.582 12.4161   0
   8  -1   1 196.763 12.4843   0
  -8   1  -2 82.7962 5.34379   0
  -8   1  -2  89.604 5.37263   0
  -8   1  -2 87.9381 5.26446   0
   8  -1   2 80.1929 5.50965   0
   8  -1   2 91.0752 5.30052   0
   8  -1   2 92.9934 5.37263   0
  -8   1  -3  226.88 13.3101   0
  -8   1  -3 205.347 13.2633   0
  -8   1  -3 215.569 13.2366   0
   8  -1   3 230.818 13.2432   0
   8  -1   3 224.707 13.2633   0
   8  -1   3  224.58 13.4237   0
  -8   1  -4 33.4744 2.09976   0
  -8   1  -4 30.5834 2.05715   0
  -8   1  -4   33.45 2.10584   0
   8  -1   4 32.3362 2.03889   0
   8  -1   4 31.1007 2.19714   0
   8  -1   4 32.1415 2.03281   0
  -8   1  -5 117.959 6.64097   0
  -8   1  -5 99.7405 6.58617   0
  -8   1  -5 112.612 6.60809   0
   8  -1   5  105.62  6.5533   0
   8  -1   5  104.42 6.70672   0
   8  -1   5 110.612 6.56974   0
  -8   2   5 61.7473 3.57678   0
  -8   2   5 53.1407 3.68855   0
   8  -2  -5 59.0914 3.74178   0
  -8   2   4 47.5519 2.74836   0
  -8   2   4 39.7364 2.83075   0
   8  -2  -4 42.8556  2.8896   0
  -8   2   3 132.899 9.39261   0
  -8   2   3 151.395 9.31541   0
   8  -2  -3 177.874 9.34115   0
   8  -2  -3 154.174 9.46981   0
  -8   2   2 101.322 6.21594   0
  -8   2   2 103.044 6.11223   0
   8  -2  -2  100.72 6.40263   0
  -8   2   1 203.184 11.7684   0
  -8   2   1 205.096 11.8408   0
   8  -2  -1 183.956 12.1088   0
   8  -2  -1 189.707 11.8046   0
   8  -2  -1 201.562 11.8843   0
  -8   2   0 177.504 10.8133   0
  -8   2   0 177.047 10.8428   0
  -8   2   0 176.937 10.8133   0
   8  -2   0 187.964 10.9385   0
   8  -2   0  169.51 10.8133   0
   8  -2   0 195.796 11.2845   0
  -8   2  -1  209.42 12.8837   0
  -8   2  -1 206.045 12.8909   0
  -8   2  -1 216.104 12.9271   0
   8  -2   1 199.121 12.8402   0
   8  -2   1 223.158 12.9923   0
   8  -2   1 236.809 12.8547   0
  -8   2  -2 102.933  6.2436   0
  -8   2  -2 99.7109 6.15371   0
  -8   2  -2 106.266  6.1952   0
  -8   2  -2 103.051 6.10531   0
   8  -2   2 98.4525 6.21594   0
   8  -2   2  102.20 6.10531   0
   8  -2   2  94.138 6.39571   0
   8  -2   2 105.934 6.11223   0
  -8   2  -3 134.443 8.58202   0
  -8   2  -3 139.776 8.65922   0
  -8   2  -3 140.104 8.71068   0
  -8   2  -3 142.388 8.57558   0
   8  -2   3 145.798 8.60132   0
   8  -2   3  143.27 8.79432   0
   8  -2   3 152.611 8.55628   0
  -8   2  -4 37.2352 2.71893   0
  -8   2  -4  40.372 2.57769   0
  -8   2  -4 42.7379  2.6542   0
   8  -2   4 41.8139 2.76013   0
   8  -2   4 41.7668 2.56592   0
   8  -2   4 41.9787 2.53649   0
  -8   2  -5  60.406 3.62468   0
   8  -2   5 54.7641 3.56081   0
   8  -2   5 59.9536 3.56613   0
   8  -2   5 55.8818 3.73646   0
  -8   3   4 99.1088 6.67685   0
  -8   3   4 119.145  6.5652   0
   8  -3  -4 107.472 6.74942   0
  -8   3   3 11.6607 0.92776   0
  -8   3   3 10.6905 1.00053   0
   8  -3  -3 11.5758 1.04298   0
  -8   3   2 204.607  12.381   0
  -8   3   2 213.894 12.4651   0
   8  -3  -2 210.613 12.6593   0
   8  -3  -2 201.151 12.4651   0
  -8   3   1 17.5062  1.1279   0
  -8   3   1  17.648 1.06712   0
   8  -3  -1 15.4192 1.42508   0
   8  -3  -1 14.4669 1.10764   0
  -8   3   0 289.828 17.1717   0
  -8   3   0 292.646 17.1923   0
  -8   3   0 298.911  17.158   0
   8  -3   0 308.604 17.1717   0
   8  -3   0 263.361 17.2402   0
   8  -3   0 271.484 17.5693   0
  -8   3  -1 16.4863 1.13466   0
  -8   3  -1 16.1554 1.16167   0
  -8   3  -1 16.7497 1.12115   0
   8  -3   1  19.404 1.28324   0
   8  -3   1 18.1951 1.66822   0
   8  -3   1 16.3918 1.09413   0
  -8   3  -2 205.021 11.8503   0
  -8   3  -2 200.996 11.8309   0
  -8   3  -2 199.533 11.9085   0
   8  -3   2 170.901 11.9021   0
   8  -3   2 185.993 12.1351   0
   8  -3   2 221.441 11.7921   0
  -8   3  -3 11.0968 0.83681   0
  -8   3  -3 9.63541 0.89138   0
  -8   3  -3 10.7451 0.77011   0
   8  -3   3 11.4182 0.87925   0
   8  -3   3 10.7512 1.08542   0
  -8   3  -4 97.7131 6.10184   0
  -8   3  -4 96.9037 6.16883   0
   8  -3   4 102.576 6.25257   0
   8  -3   4 100.186 6.03485   0
  -8   4   3 155.464 9.05566   0
  -8   4   3 146.909 9.13998   0
   8  -4  -3 151.568 9.17933   0
   8  -4  -3 144.761 9.06128   0
  -8   4   2 18.9797   1.222   0
  -8   4   2 19.4923 1.29949   0
   8  -4  -2  18.628 1.31141   0
   8  -4  -2   19.54 1.52601   0
  -8   4   1 205.867 12.0483   0
  -8   4   1 203.775 12.0916   0
   8  -4  -1 195.972 12.3206   0
   8  -4  -1 200.594 12.0792   0
  -8   4   0 17.9469 1.07819   0
  -8   4   0 16.9564 1.10327   0
   8  -4   0 14.7374 1.07192   0
   8  -4   0 13.9037 1.51699   0
  -8   4  -1 204.982  11.677   0
  -8   4  -1 195.118 11.6461   0
  -8   4  -1 192.086 11.6956   0
   8  -4   1 188.138 12.0916   0
   8  -4   1 192.228 11.6275   0
  -8   4  -2 19.0035 1.23988   0
  -8   4  -2 18.6101 1.32929   0
  -8   4  -2 18.3776 1.23988   0
   8  -4   2  19.546  1.9552   0
   8  -4   2 18.5744 1.19815   0
  -8   4  -3 149.522 8.51041   0
  -8   4  -3 142.288 8.47668   0
  -8   4  -3 140.888 8.59473   0
   8  -4   3 130.753 8.76898   0
  -8   5   2 46.3628 2.82746   0
  -8   5   2 48.1266 2.89259   0
   8  -5  -2 45.7604  3.0554   0
   8  -5  -2 44.1215 2.88173   0
  -8   5   1 60.0889  3.5386   0
  -8   5   1  59.887 3.58346   0
   8  -5  -1 57.4364 3.56103   0
   8  -5  -1 54.2567 3.76292   0
  -8   5   0 63.4257 3.69222   0
  -8   5   0 60.9585 3.65252   0
   8  -5   0 56.7899  3.9361   0
   8  -5   0 58.0206 3.65252   0
  -8   5  -1 58.6196  3.5386   0
  -8   5  -1 59.8422 3.56664   0
   8  -5   1 54.9464 3.51617   0
  -8   5  -2 43.1989 2.70807   0
  -8   5  -2 43.7253 2.80033   0
  -8   5  -2 43.9315 2.71892   0
   8  -5   2 43.9966 2.67551   0
  -9  -5   2   47.09 2.85968   0
  -9  -5   2 43.4051 2.76506   0
   9   5  -2 43.5365 2.99635   0
   9   5  -2 41.8228 2.78083   0
   9   5  -2 47.3056 3.03315   0
  -9  -5   1 63.3689 3.90597   0
  -9  -5   1 62.5715 3.80832   0
   9   5  -1 63.9765 4.01989   0
   9   5  -1 60.7432 4.02532   0
   9   5  -1 60.7812 3.83544   0
  -9  -5   0 61.6797 4.16754   0
  -9  -5   0 74.8019 4.12916   0
  -9  -5   0 64.4599 4.07981   0
   9   5   0 67.8268 4.33754   0
   9   5   0 66.0336 4.26625   0
  -9  -5  -1 67.7523 4.27487   0
  -9  -5  -1 73.9259 4.33997   0
   9   5   1 68.5606 4.45389   0
   9   5   1 71.0615 4.51899   0
  -9  -5  -2 53.0144 3.22239   0
   9   5   2 50.3545 3.36958   0
   9   5   2 50.1758 3.34856   0
  -9  -4   3 11.0972 0.86451   0
   9   4  -3  10.858 1.12005   0
   9   4  -3 9.21052 1.06568   0
  -9  -4   2 140.736 8.01957   0
   9   4  -2 128.227 8.11155   0
   9   4  -2 126.169 7.92184   0
   9   4  -2 131.803 8.14029   0
  -9  -4   1 10.2842 0.82822   0
   9   4  -1 7.38245 0.93547   0
   9   4  -1 10.0876 0.94739   0
   9   4  -1 10.4689 0.99505   0
  -9  -4   0  167.86 10.8826   0
  -9  -4   0 190.259 10.8223   0
   9   4   0 183.732 10.9188   0
   9   4   0 180.384 10.9972   0
   9   4   0 179.207 10.9671   0
  -9  -4  -1 10.9932 0.83418   0
  -9  -4  -1 9.95647 0.85205   0
  -9  -4  -1 10.6596 0.76267   0
   9   4   1  12.322 0.97718   0
   9   4   1 10.5225 0.98313   0
   9   4   1 10.0399 0.97718   0
  -9  -4  -2 146.456 8.49097   0
  -9  -4  -2 147.106 8.50246   0
   9   4   2 118.603 8.53696   0
   9   4   2 156.982 8.65768   0
   9   4   2 131.895 8.63469   0
  -9  -4  -3  11.804 0.92975   0
   9   4   3 11.5485 1.16355   0
   9   4   3 9.67811 1.03849   0
   9   4   3  11.592 1.04937   0
  -9  -3   4 2.76564 0.50235   0
  -9  -3   4  2.9439 0.56717   0
   9   3  -4 2.04722 0.56177   0
  -9  -3   3 138.188 7.94685   0
  -9  -3   3 123.696 7.95854   0
   9   3  -3 132.338 8.02281   0
   9   3  -3 128.342 8.08124   0
  -9  -3   2 6.06059 0.64646   0
  -9  -3   2 6.81894 0.64646   0
   9   3  -2 6.88732 0.82673   0
   9   3  -2 6.25329 0.74592   0
  -9  -3   1 285.298 16.0817   0
  -9  -3   1 254.202 16.1464   0
   9   3  -1 264.456 16.1787   0
   9   3  -1 266.105 16.1982   0
   9   3  -1 262.599 16.2046   0
   9   3  -1 280.072 16.2434   0
  -9  -3   0 9.93088 0.70185   0
  -9  -3   0 8.78955 0.82648   0
   9   3   0 9.41925 0.87896   0
   9   3   0  9.7669 0.89207   0
   9   3   0 9.98991 0.99702   0
   9   3   0 10.1605 0.88551   0
  -9  -3  -1 277.788 16.5669   0
  -9  -3  -1 257.741 16.6122   0
   9   3   1 301.658 16.7157   0
   9   3   1 278.344 16.7157   0
   9   3   1 269.113 16.6639   0
  -9  -3  -2 8.11808 0.68998   0
  -9  -3  -2 7.57729 0.68998   0
   9   3   2 8.98211 0.82673   0
   9   3   2 6.44598 0.84537   0
   9   3   2 6.29058 0.87024   0
  -9  -3  -3 147.817 8.98111   0
  -9  -3  -3 149.079  8.8993   0
   9   3   3 139.818 9.02201   0
   9   3   3 157.599 9.02785   0
   9   3   3 139.701 8.91683   0
  -9  -3  -4 3.47866 0.54017   0
  -9  -3  -4 3.54348  0.6536   0
   9   3   4 3.25179 0.60498   0
   9   3   4 3.88919 0.57257   0
   9   3   4 3.54348 0.56717   0
  -9  -2   4 76.6273 4.78778   0
  -9  -2   4 71.1182  4.8673   0
   9   2  -4 80.3984 4.84458   0
   9   2  -4 86.5777 4.93545   0
   9   2  -4 74.1169 4.91841   0
  -9  -2   3 60.9521 3.80139   0
  -9  -2   3 56.5635 3.84466   0
   9   2  -3 59.1163 3.91884   0
   9   2  -3 66.4101 3.85084   0
  -9  -2   2 158.129 10.5256   0
  -9  -2   2 177.798 10.5322   0
   9   2  -2 180.463 10.6248   0
   9   2  -2 188.992 10.5917   0
   9   2  -2  164.76 10.5124   0
  -9  -2   1 123.288 7.91152   0
  -9  -2   1 127.849 7.74569   0
   9   2  -1 141.986 7.98753   0
   9   2  -1 127.586  8.0359   0
   9   2  -1 133.231 7.92534   0
   9   2  -1 124.228 7.95298   0
  -9  -2   0  290.11 16.8425   0
  -9  -2   0 237.976 16.9547   0
   9   2   0  289.24 16.9898   0
   9   2   0 294.985 16.9687   0
   9   2   0 282.534  17.102   0
   9   2   0 298.724 17.0038   0
  -9  -2  -1 128.319 7.64205   0
  -9  -2  -1 135.733 7.58677   0
  -9  -2  -1 113.691 7.65587   0
   9   2   1 133.418 7.75951   0
   9   2   1 117.118 7.69733   0
  -9  -2  -2 205.038 11.7289   0
  -9  -2  -2 198.625 11.7091   0
  -9  -2  -2 174.849 11.6628   0
  -9  -2  -2 203.372  11.643   0
   9   2   2 176.958 11.7157   0
   9   2   2 210.479 11.7752   0
   9   2   2 186.671 11.8016   0
  -9  -2  -3 69.7479 4.25262   0
  -9  -2  -3 65.8538 4.18462   0
  -9  -2  -3 62.8126 4.23407   0
  -9  -2  -3 72.6035 4.22789   0
   9   2   3 69.2781 4.29588   0
   9   2   3 68.0048 4.22789   0
  -9  -2  -4 85.0953 4.96385   0
  -9  -2  -4 78.8138 4.98089   0
   9   2   4 79.4556 4.92977   0
   9   2   4 77.8824 4.98089   0
  -9  -1   5 13.1167 1.18326   0
   9   1  -5 15.8228 1.26286   0
   9   1  -5 14.3371 1.22041   0
  -9  -1   4  130.20  8.2273   0
  -9  -1   4 118.636 8.30354   0
   9   1  -4 142.351 8.33286   0
   9   1  -4 133.378 8.35631   0
   9   1  -4 155.152 8.35631   0
  -9  -1   3 39.4817 2.64621   0
  -9  -1   3 35.5028 2.69106   0
   9   1  -3 47.9522 2.71028   0
   9   1  -3 38.7449 2.72951   0
   9   1  -3 44.3256 2.74873   0
  -9  -1   2  232.74 13.1311   0
  -9  -1   2  186.87  13.138   0
   9   1  -2 214.316 13.0416   0
   9   1  -2 239.092 13.2687   0
   9   1  -2 215.293 13.1724   0
  -9  -1   1 99.2334 5.97505   0
  -9  -1   1  95.154 6.05434   0
  -9  -1   1 90.8943 5.87415   0
   9   1  -1 101.425 6.13362   0
   9   1  -1 100.697 6.08317   0
   9   1  -1 101.951 6.27056   0
   9   1  -1 100.826  6.0183   0
  -9  -1   0 281.822   17.58   0
  -9  -1   0 295.051 17.5287   0
  -9  -1   0 265.377 17.6386   0
   9   1   0 303.137 17.6679   0
   9   1   0 311.898 17.7045   0
   9   1   0  314.25 17.6166   0
   9   1   0 286.656 17.8583   0
  -9  -1  -1 108.019 6.12641   0
  -9  -1  -1 91.7376 6.15524   0
  -9  -1  -1 99.3127 6.06154   0
   9   1   1 106.102 6.17686   0
   9   1   1 97.1793 6.22011   0
  -9  -1  -2 243.971 14.8447   0
  -9  -1  -2 273.248 14.8379   0
  -9  -1  -2  271.30 14.8723   0
  -9  -1  -2 211.336 14.8585   0
   9   1   2 251.039 14.9342   0
   9   1   2 234.632 14.8929   0
  -9  -1  -3 47.4908  2.7231   0
  -9  -1  -3 44.8254 2.73591   0
  -9  -1  -3  43.057 2.71028   0
   9   1   3 37.5531 2.70388   0
   9   1   3 40.5966 2.85765   0
   9   1   3  43.781 2.74873   0
  -9  -1  -4 137.255 8.43255   0
  -9  -1  -4 143.688 8.42082   0
  -9  -1  -4  135.80 8.43841   0
   9   1   4 138.615  8.5381   0
   9   1   4 140.175 8.43841   0
   9   1   4 139.266 8.40322   0
  -9  -1  -5 14.3212 1.10367   0
  -9  -1  -5 11.9441 1.13551   0
  -9  -1  -5 14.6077 1.08245   0
   9   1   5 14.4061 1.06653   0
   9   1   5 14.3584 1.01877   0
   9   1   5 15.0216 1.24163   0
  -9   0   5 88.6553 5.96749   0
   9   0  -5 103.767 6.00499   0
  -9   0   4 -0.0415 0.33203   0
  -9   0   4 0.50397 0.32017   0
   9   0  -4-0.07115 0.33203   0
   9   0  -4 0.18973 0.35574   0
  -9   0   3 248.794 14.3117   0
   9   0  -3 214.779 14.3441   0
   9   0  -3 229.208 14.4285   0
   9   0  -3 258.551 14.3182   0
  -9   0   2 0.09071 0.30701   0
  -9   0   2 0.39073 0.20932   0
  -9   0   2 0.06977 0.20234   0
   9   0  -2 0.16048 0.24421   0
   9   0  -2 0.65588 0.27212   0
   9   0  -2 0.30003 0.36283   0
  -9   0   1 364.795 21.8045   0
  -9   0   1 360.714 21.9215   0
  -9   0   1 382.635  21.863   0
   9   0  -1 360.853 22.0312   0
   9   0  -1 394.565 22.2799   0
   9   0  -1 391.149 21.8484   0
   9   0  -1 332.963 21.8337   0
   9   0  -1 347.555 21.9581   0
  -9   0   0 0.29003 0.17848   0
  -9   0   0 0.20079 0.14873   0
  -9   0   0 0.06693  0.1413   0
   9   0   0  0.6098 0.37183   0
   9   0   0 0.52056 0.20822   0
   9   0   0-0.05206 0.25284   0
   9   0   0-0.05206 0.23797   0
  -9   0  -1  399.48 21.8484   0
  -9   0  -1 372.183 21.8484   0
  -9   0  -1  365.98 21.7972   0
   9   0   1 369.557 21.9215   0
   9   0   1 320.001 21.9215   0
  -9   0  -2 0.33492 0.23025   0
  -9   0  -2 0.00698 0.16746   0
  -9   0  -2 0.22328 0.20932   0
  -9   0  -2 0.12559 0.17444   0
   9   0   2 0.23723 0.20932   0
   9   0   2 0.52331 0.42562   0
   9   0   2  0.1535 0.24421   0
  -9   0  -3  236.15 13.6694   0
  -9   0  -3 223.058  13.637   0
  -9   0  -3 236.163 13.6629   0
  -9   0  -3 221.189 13.6435   0
   9   0   3 223.933 13.6759   0
   9   0   3 222.649 13.8251   0
   9   0   3 231.368 13.6694   0
  -9   0  -4 0.62848 0.26681   0
  -9   0  -4 0.42689 0.27866   0
  -9   0  -4 0.07708 0.24309   0
   9   0   4 0.18973 0.21344   0
   9   0   4 1.04944 0.44468   0
   9   0   4 0.68776 0.26681   0
  -9   0  -5 105.669 6.40675   0
  -9   0  -5 102.529 6.40675   0
  -9   0  -5 110.816 6.41211   0
   9   0   5 109.456 6.39604   0
   9   0   5  99.926 6.36389   0
   9   0   5  101.49 6.51389   0
  -9   1   5 12.6339 1.09306   0
   9  -1  -5 13.5147 1.16735   0
  -9   1   4 153.393  8.2273   0
  -9   1   4 114.936 8.29181   0
   9  -1  -4 138.533 8.36804   0
  -9   1   3 47.8112 2.88969   0
   9  -1  -3 43.8451 3.08191   0
  -9   1   2 247.866 14.7828   0
  -9   1   2 265.657 14.7002   0
   9  -1  -2  249.36 15.0443   0
   9  -1  -2 222.547 14.7828   0
  -9   1   1 91.2475 5.51377   0
  -9   1   1 95.4423 5.45611   0
   9  -1  -1 93.4098 5.85252   0
   9  -1  -1 88.6239 5.59305   0
   9  -1  -1 81.3515 5.48494   0
  -9   1   0 261.121 17.7045   0
  -9   1   0 282.078 17.6752   0
   9  -1   0 304.954 17.6679   0
   9  -1   0 307.899 18.0634   0
   9  -1   0 322.878 17.7924   0
  -9   1  -1 96.4585 5.91018   0
  -9   1  -1  97.864 5.93901   0
   9  -1   1 90.8943 5.98947   0
   9  -1   1 102.088 5.93181   0
  -9   1  -2 230.847 14.1221   0
  -9   1  -2 249.849 14.0395   0
  -9   1  -2 243.517 14.1359   0
   9  -1   2 213.642 14.3217   0
   9  -1   2 226.745 14.1634   0
   9  -1   2 246.235 14.0946   0
  -9   1  -3 43.5055 2.59495   0
  -9   1  -3 41.6602 2.62699   0
  -9   1  -3 40.9426 2.64621   0
   9  -1   3 43.6529 2.60777   0
   9  -1   3  40.917 2.64621   0
   9  -1   3 39.9751 2.83843   0
  -9   1  -4 145.904 8.56156   0
  -9   1  -4 144.327 8.55569   0
  -9   1  -4 141.137 8.53224   0
   9  -1   4 144.163 8.52051   0
   9  -1   4  136.68 8.69643   0
   9  -1   4 136.152 8.52637   0
  -9   1  -5 15.0004 1.10367   0
  -9   1  -5 14.9951 1.08245   0
   9  -1   5 13.7535 1.22041   0
   9  -1   5 14.0081 1.02939   0
   9  -1   5 14.2947    1.04   0
  -9   2   4 66.6314 4.94681   0
  -9   2   4 87.6568 4.86162   0
   9  -2  -4 83.1586 5.04904   0
  -9   2   3 52.6014 3.94974   0
  -9   2   3 69.0803 3.87557   0
   9  -2  -3 64.5743   4.061   0
  -9   2   2 182.314 11.0215   0
  -9   2   2 179.028 10.9289   0
   9  -2  -2 186.506 11.2463   0
  -9   2   1 126.729 7.32421   0
  -9   2   1 127.179 7.40021   0
   9  -2  -1  115.57 7.43476   0
   9  -2  -1 116.317 7.70424   0
  -9   2   0 254.903 15.9726   0
  -9   2   0 255.941 16.0077   0
   9  -2   0 287.662 16.0919   0
   9  -2   0 238.565 15.9656   0
   9  -2   0 301.046 16.4496   0
  -9   2  -1  133.75 7.94607   0
  -9   2  -1 127.559 7.92534   0
  -9   2  -1 129.645 7.95298   0
   9  -2   1 122.625 7.88389   0
   9  -2   1 141.502 8.02899   0
   9  -2   1 132.969 8.34683   0
  -9   2  -2 190.876 10.8099   0
  -9   2  -2 190.644 10.8628   0
  -9   2  -2 184.132 10.7702   0
   9  -2   2 177.501 10.7107   0
   9  -2   2 169.183 11.0347   0
   9  -2   2 161.223 10.8297   0
  -9   2  -3 59.5861 3.79521   0
  -9   2  -3 63.2639 3.85702   0
  -9   2  -3 62.3861 3.91884   0
   9  -2   3 63.9685  3.8323   0
   9  -2   3 58.2757 4.01773   0
  -9   2  -4  77.678 4.70827   0
   9  -2   4 76.1729 4.66284   0
   9  -2   4 74.1794 4.85594   0
  -9   3   4 3.15456 0.63199   0
   9  -3  -4 2.51717 0.52396   0
  -9   3   3 141.618  8.1163   0
  -9   3   3 115.469 8.16889   0
   9  -3  -3 143.037 8.26823   0
  -9   3   2 6.92461 0.52214   0
  -9   3   2  6.5703 0.63403   0
   9  -3  -2 7.76377 0.94483   0
  -9   3   1 266.454 15.3895   0
  -9   3   1 260.969 15.4478   0
   9  -3  -1 241.116 15.7324   0
   9  -3  -1 261.907 15.4348   0
  -9   3   0 9.17655 0.65594   0
  -9   3   0 9.64227 0.70185   0
   9  -3   0 7.79253 0.80024   0
   9  -3   0 8.33695 0.67561   0
   9  -3   0 8.82235 1.16757   0
  -9   3  -1 269.792 17.0715   0
  -9   3  -1 259.462 17.0521   0
  -9   3  -1 279.509 17.0973   0
   9  -3   1 316.194 17.5502   0
   9  -3   1 277.685 17.0326   0
   9  -3   1 312.707 17.1556   0
  -9   3  -2 7.57729 0.61538   0
  -9   3  -2 7.17947  0.5843   0
  -9   3  -2 7.54621 0.68376   0
   9  -3   2 7.14217 0.78321   0
   9  -3   2 6.76921 0.55322   0
   9  -3   2  6.1787 0.99456   0
  -9   3  -3 139.847 7.98775   0
  -9   3  -3 139.017 8.05787   0
  -9   3  -3 127.968 7.92348   0
   9  -3   3 126.787  8.2098   0
   9  -3   3 123.667  7.9936   0
  -9   3  -4 2.77645 0.60498   0
  -9   3  -4 3.50027 0.52396   0
   9  -3   4 3.38143 0.69141   0
  -9   4   3 11.7062 0.91344   0
  -9   4   3 9.26489 1.01131   0
   9  -4  -3 10.9993  1.0983   0
  -9   4   2 148.187 8.72092   0
  -9   4   2 145.761 8.64043   0
   9  -4  -2  143.30 8.91638   0
   9  -4  -2 139.696 8.72092   0
  -9   4   1 10.7847 0.79247   0
  -9   4   1 10.5106 0.73288   0
   9  -4  -1  8.7648 1.17976   0
   9  -4  -1 10.4689 0.79843   0
  -9   4   0 172.318  10.026   0
  -9   4   0 177.609 10.0682   0
   9  -4   0 146.137   10.40   0
   9  -4   0 171.793 10.0381   0
  -9   4  -1 10.4808 0.76863   0
  -9   4  -1 10.5761 0.78651   0
   9  -4   1 10.7907  1.4896   0
   9  -4   1 10.8979 0.76863   0
  -9   4  -2 138.793 8.26676   0
  -9   4  -2 140.937 8.27251   0
  -9   4  -2 137.873    8.33   0
   9  -4   2 131.055 8.21502   0
  -9   4  -3 11.6029 0.84276   0
  -9   4  -3 10.5644 0.81013   0
  -9   4  -3 11.2984 0.96237   0
   9  -4   3 9.97172 1.23423   0
  -9   5   2 51.9263 3.05418   0
   9  -5  -2 48.9089 3.25393   0
   9  -5  -2 44.6457 3.03841   0
  -9   5   1 68.8156 3.97649   0
  -9   5   1 66.5317 4.02532   0
   9  -5  -1 63.1628 4.25317   0
   9  -5  -1 62.3273 4.00362   0
  -9   5   0 64.4269 3.80014   0
  -9   5   0 63.8183 3.83853   0
   9  -5   0 61.9703 3.80563   0
   9  -5   0  58.214 4.14013   0
  -9   5  -1 68.7613 3.99819   0
  -9   5  -1 63.9711 3.96022   0
   9  -5   1 61.9584 3.94394   0
  -9   5  -2  49.361  2.9911   0
  -9   5  -2 49.1928 3.00161   0
   9  -5   2 46.2227  2.9543   0
 -10  -5   1 41.4571 2.80604   0
 -10  -5   1 46.9645 2.92645   0
  10   5  -1  46.776 3.01021   0
  10   5  -1 45.9332 2.98927   0
 -10  -5   0 71.3687 4.49163   0
 -10  -5   0 68.9615 4.59214   0
  10   5   0 74.9768 4.65563   0
  10   5   0 79.8441 4.72441   0
 -10  -5  -1 54.3094 3.07303   0
 -10  -5  -1 46.4619 3.12538   0
 -10  -5  -1 42.6298 3.07827   0
  10   5   1  52.943  3.2615   0
  10   5   1 48.1791 3.18297   0
 -10  -4   3 68.9415 4.23408   0
  10   4  -3 66.7746 4.38623   0
 -10  -4   2 6.62821 0.71372   0
  10   4  -2  7.0487 0.84651   0
  10   4  -2 7.98926 0.87417   0
 -10  -4   1 100.239 6.59259   0
  10   4  -1  104.84 6.63265   0
  10   4  -1 113.659 6.67843   0
  10   4  -1 111.582  6.6727   0
 -10  -4   0 13.8665 0.99584   0
 -10  -4   0 10.9427 0.98426   0
  10   4   0 12.3669 1.05953   0
  10   4   0 11.7243 1.04795   0
  10   4   0 12.8475 1.08269   0
 -10  -4  -1 100.869 6.70704   0
 -10  -4  -1 105.092 6.81577   0
 -10  -4  -1  119.92 6.75282   0
  10   4   1 122.678 6.93023   0
  10   4   1 110.517 6.88445   0
  10   4   1 110.477 6.83866   0
 -10  -4  -2   8.537 0.68606   0
 -10  -4  -2 7.48578 0.74692   0
  10   4   2 7.15382 0.85204   0
  10   4   2 8.35995 0.82991   0
  10   4   2 7.11509 0.84651   0
 -10  -4  -3  76.418  4.5069   0
  10   4   3 66.3129  4.6643   0
  10   4   3  76.014 4.62758   0
 -10  -3   3 2.41595 0.55061   0
 -10  -3   3 2.62946 0.48881   0
  10   3  -3 2.81487 0.58432   0
 -10  -3   2 138.664 9.13941   0
  10   3  -2 154.244 9.19899   0
  10   3  -2 159.719 9.27049   0
 -10  -3   1  2.1585 0.42057   0
  10   3  -1 1.88018 0.45768   0
  10   3  -1 2.38734 0.50097   0
  10   3  -1 2.82028 0.49478   0
 -10  -3   0 175.893 10.1934   0
 -10  -3   0 149.223 10.3061   0
  10   3   0 168.895 10.3249   0
  10   3   0 184.094 10.3562   0
  10   3   0  177.61 10.3625   0
  10   3   0 165.312 10.3876   0
 -10  -3  -1 2.32549 0.43912   0
 -10  -3  -1  2.8512 0.38346   0
  10   3   1 1.93585 0.43912   0
  10   3   1 2.72132 0.50097   0
  10   3   1  2.7708 0.51953   0
 -10  -3  -2 170.009 9.62796   0
 -10  -3  -2  151.73 9.66371   0
  10   3   2  148.84 9.78287   0
  10   3   2 168.388 9.75904   0
 -10  -3  -3 3.83743 0.48319   0
  10   3   3 3.71944 0.54499   0
  10   3   3 3.01713 0.64051   0
  10   3   3 3.15198 0.58432   0
 -10  -2   4 44.5119 2.72935   0
 -10  -2   4 35.4487 2.78951   0
  10   2  -4 40.5027 2.86609   0
  10   2  -4 49.1119  2.8278   0
 -10  -2   3 90.8286 5.48752   0
 -10  -2   3 74.8579 5.51123   0
  10   2  -3 100.678 5.56456   0
  10   2  -3 90.1115 5.60604   0
 -10  -2   2 51.5894 3.99511   0
  10   2  -2 67.5446 4.00143   0
  10   2  -2 66.8819 4.10872   0
  10   2  -2 71.0411 4.12134   0
 -10  -2   1 126.739 8.31075   0
  10   2  -1 138.403 8.43567   0
  10   2  -1 136.864 8.34362   0
  10   2  -1 139.264  8.3502   0
  10   2  -1 139.909 8.29102   0
 -10  -2   0 67.2668 4.90195   0
 -10  -2   0 82.6996  4.7619   0
  10   2   0 77.9177 5.03534   0
  10   2   0  80.232 4.91529   0
  10   2   0 83.3199 4.88194   0
  10   2   0 80.7322 4.91529   0
 -10  -2  -1 117.093 8.20555   0
 -10  -2  -1 135.431  8.1661   0
 -10  -2  -1 142.059 8.10035   0
  10   2   1 135.365 8.25157   0
  10   2   1 152.184 8.23842   0
  10   2   1 125.246 8.23185   0
 -10  -2  -2 60.7346 4.47478   0
 -10  -2  -2 76.5383 4.50634   0
 -10  -2  -2 78.2929 4.43691   0
  10   2   2 76.9107 4.55683   0
  10   2   2 69.2234 4.61994   0
 -10  -2  -3 93.7442 6.14531   0
 -10  -2  -3 102.195 6.19272   0
 -10  -2  -3 115.048 6.15717   0
 -10  -2  -3 97.9754 6.17494   0
  10   2   3 102.005 6.26976   0
  10   2   3 93.8627  6.1868   0
 -10  -2  -4 47.6351 3.05753   0
 -10  -2  -4 50.1128  3.0083   0
  10   2   4 46.8584 3.07394   0
  10   2   4 45.5238 3.01924   0
 -10  -1   4  29.737 1.92798   0
 -10  -1   4 25.0411 1.98435   0
  10   1  -4 27.7696 2.06891   0
  10   1  -4 31.5636 2.04636   0
 -10  -1   3 144.699  8.2939   0
  10   1  -3 139.923 8.37972   0
  10   1  -3  123.17 8.33681   0
 -10  -1   2 36.4676 2.35824   0
  10   1  -2 35.1443  2.4041   0
  10   1  -2 36.7165 2.54166   0
 -10  -1   1 302.462 17.9935   0
 -10  -1   1 290.777 18.0619   0
  10   1  -1 310.248 18.0277   0
  10   1  -1 298.275  18.274   0
  10   1  -1 302.866 18.0962   0
  10   1  -1 302.209  18.144   0
 -10  -1   0 34.2062  2.2781   0
 -10  -1   0 33.5048  2.2017   0
  10   1   0 36.3941 2.29894   0
  10   1   0 36.1996 2.23643   0
  10   1   0 32.9491 2.31283   0
  10   1   0 35.7968 2.51425   0
 -10  -1  -1 289.833 17.4872   0
 -10  -1  -1 287.062  17.583   0
 -10  -1  -1 310.187 17.5488   0
  10   1   1 287.719 17.6309   0
  10   1   1 269.239 17.6309   0
  10   1   1 314.162 17.6036   0
 -10  -1  -2 35.7208 2.55476   0
 -10  -1  -2 40.7321 2.54821   0
 -10  -1  -2 43.7847 2.50891   0
 -10  -1  -2 42.9986 2.55476   0
  10   1   2 36.4283 2.63992   0
 -10  -1  -3 118.622 8.26325   0
 -10  -1  -3 144.484 8.26938   0
 -10  -1  -3 146.397 8.26938   0
 -10  -1  -3  157.32 8.25712   0
  10   1   3 137.257  8.2939   0
  10   1   3 114.551 8.39811   0
  10   1   3 136.233 8.31842   0
 -10  -1  -4 33.3055 2.12528   0
 -10  -1  -4 34.9629 2.10837   0
 -10  -1  -4 32.0484 2.12528   0
  10   1   4 32.8658 2.11965   0
  10   1   4 29.4383 2.28313   0
  10   1   4 31.7496 2.14783   0
 -10   0   4 135.466 7.87208   0
  10   0  -4 122.906 7.98031   0
 -10   0   3 0.27286 0.35348   0
 -10   0   3 0.30387 0.28527   0
  10   0  -3 0.47751 0.38449   0
  10   0  -3 0.31007 0.37829   0
 -10   0   2 233.825 12.7075   0
 -10   0   2 223.215 12.7872   0
  10   0  -2 183.301 12.8204   0
  10   0  -2 209.777 13.0659   0
 -10   0   1 0.10404 0.18728   0
 -10   0   1 0.59652 0.13179   0
  10   0  -1 1.25547 0.34681   0
  10   0  -1 0.59652 0.42311   0
  10   0  -1 0.49248 0.26358   0
 -10   0   0 241.977 15.5708   0
 -10   0   0 239.871  15.613   0
  10   0   0  264.90 15.7187   0
  10   0   0 273.224 15.5919   0
  10   0   0 274.844 15.6553   0
  10   0   0 269.992 15.9651   0
 -10   0  -1 0.10404 0.17341   0
 -10   0  -1 0.38149 0.18034   0
 -10   0  -1 0.19422 0.13873   0
  10   0   1-0.15953 0.27745   0
  10   0   1 0.10404 0.23583   0
 -10   0  -2 207.986 12.4554   0
 -10   0  -2 220.561 12.4952   0
 -10   0  -2 215.564 12.4952   0
 -10   0  -2 217.754 12.4687   0
  10   0   2 210.016 12.5616   0
  10   0   2 175.908 12.5549   0
 -10   0  -3 0.29767 0.21705   0
 -10   0  -3-0.23566 0.20465   0
 -10   0  -3 0.11783 0.22325   0
 -10   0  -3 0.02481 0.22325   0
  10   0   3-0.13023  0.4403   0
  10   0   3 0.56433 0.27286   0
  10   0   3 0.13023 0.24806   0
 -10   0  -4 136.463 8.00879   0
 -10   0  -4 141.578 8.02018   0
  10   0   4 128.539 8.02018   0
  10   0   4 129.639 8.01449   0
  10   0   4  125.64 8.17968   0
 -10   1   4 36.8401 2.25494   0
  10  -1  -4 32.1667 2.41843   0
 -10   1   3 153.526 8.86399   0
  10  -1  -3 139.574 9.08467   0
 -10   1   2  38.138 2.30584   0
 -10   1   2 39.6185 2.22068   0
  10  -1  -2 31.0174 2.32549   0
  10  -1  -2 34.4893 2.61372   0
 -10   1   1 270.984 16.3515   0
 -10   1   1 268.918   16.42   0
  10  -1  -1 292.084 16.7757   0
  10  -1  -1  276.71 16.5157   0
  10  -1  -1  262.09 16.4131   0
 -10   1   0 30.6571 2.14614   0
 -10   1   0 30.6919 2.09752   0
  10  -1   0 34.6924  2.5073   0
  10  -1   0 34.6855  2.1253   0
  10  -1   0 36.5885 2.25032   0
 -10   1  -1 272.202 16.1531   0
 -10   1  -1 275.178 16.1258   0
  10  -1   1 237.679 16.1052   0
  10  -1   1 292.816 16.2489   0
 -10   1  -2 35.8453 2.14862   0
 -10   1  -2 36.1597 2.16172   0
  10  -1   2 35.4522 2.16827   0
  10  -1   2 28.5806 2.22723   0
  10  -1   2 29.4256 2.41065   0
 -10   1  -3  136.08 8.09161   0
 -10   1  -3 142.057 8.07935   0
  10  -1   3 126.738 8.12226   0
  10  -1   3 141.824 8.07935   0
  10  -1   3 121.319  8.2939   0
 -10   1  -4 32.0765 2.07455   0
 -10   1  -4 34.0891 2.08582   0
  10  -1   4 30.4248 2.28313   0
  10  -1   4 32.2288 2.06327   0
  10  -1   4 31.2366 2.08582   0
 -10   2   4 51.8248 3.09034   0
  10  -2  -4 46.3169 3.28178   0
 -10   2   3 105.448 6.21643   0
  10  -2  -3 98.0939 6.42384   0
 -10   2   2 67.2984 4.10872   0
 -10   2   2 66.3391 4.02036   0
  10  -2  -2 64.1112 4.36118   0
 -10   2   1 119.717 7.21273   0
 -10   2   1  118.98 7.28505   0
  10  -2  -1 112.767 7.33108   0
  10  -2  -1 126.818 7.63353   0
 -10   2   0 71.1884  4.5218   0
 -10   2   0 68.4406 4.55515   0
  10  -2   0 79.2849 4.62851   0
  10  -2   0 77.3842  4.9353   0
 -10   2  -1 125.108 8.12665   0
 -10   2  -1 127.068 8.14637   0
  10  -2   1 147.424  8.2187   0
  10  -2   1 138.817 8.54087   0
 -10   2  -2 64.9064 3.99511   0
 -10   2  -2 66.3328 3.97618   0
  10  -2   2 60.4947 4.04561   0
 -10   2  -3 97.9813 5.58234   0
 -10   2  -3 88.4996 5.55271   0
  10  -2   3 92.8849 5.60604   0
  10  -2   3  83.658 5.78382   0
 -10   2  -4 44.2712 2.86062   0
  10  -2   4 46.7271  2.8825   0
  10  -2   4 44.3205 3.08488   0
 -10   3   3 2.90476 0.47757   0
 -10   3   3 2.28673 0.55061   0
  10  -3  -3 1.89343 0.52814   0
 -10   3   2 149.942 8.75811   0
 -10   3   2 145.629 8.85344   0
  10  -3  -2 142.102 9.06792   0
 -10   3   1 2.02243 0.38346   0
 -10   3   1 2.36878 0.33398   0
  10  -3  -1 1.92966 0.35253   0
  10  -3  -1 2.48011  0.6927   0
 -10   3   0 161.271 9.91143   0
 -10   3   0 164.096 9.87383   0
  10  -3   0 162.743 9.97408   0
  10  -3   0 155.576  9.8801   0
  10  -3   0  179.49 10.3312   0
 -10   3  -1 2.48011 0.37109   0
 -10   3  -1  2.2822  0.3649   0
  10  -3   1 2.29457 0.42675   0
  10  -3   1 2.87594 0.67414   0
  10  -3   1 1.93585 0.30306   0
 -10   3  -2 146.022 9.00834   0
 -10   3  -2 147.214 8.99643   0
 -10   3  -2 150.538 9.06792   0
  10  -3   2 154.518 9.07983   0
  10  -3   2 147.964 8.94876   0
 -10   3  -3 2.68564 0.46072   0
 -10   3  -3 3.38233 0.48319   0
 -10   3  -3 2.93847 0.56747   0
  10  -3   3 3.59584 0.78097   0
  10  -3   3  2.0058 0.52252   0
 -10   4   3 59.1144 4.23408   0
 -10   4   3  68.506 4.17112   0
  10  -4  -3 72.7033    4.36   0
 -10   4   2 8.35442 0.70266   0
  10  -4  -2 6.42903 0.69712   0
  10  -4  -2 6.21325 1.02356   0
 -10   4   1 111.542 6.52964   0
 -10   4   1 112.927 6.47241   0
  10  -4  -1 98.6713 6.80433   0
  10  -4  -1 104.966 6.51247   0
 -10   4   0 11.3943 0.82215   0
 -10   4   0 11.9327 0.85689   0
  10  -4   0 11.2437  0.8511   0
  10  -4   0 10.4563  1.4706   0
 -10   4  -1  109.51  6.8215   0
 -10   4  -1  113.11 6.84439   0
  10  -4   1 119.142 7.30221   0
  10  -4   1 110.615 6.80433   0
 -10   4  -2 7.59091 0.61413   0
 -10   4  -2 7.65176 0.61413   0
  10  -4   2 5.10118 1.05122   0
  10  -4   2 7.20915  0.6086   0
  10  -4   2 6.05281 1.08442   0
 -10   4  -3 67.6875 4.31802   0
 -10   4  -3 67.1523 4.39672   0
 -10   4  -3 69.9436 4.29179   0
  10  -4   3 76.5124 4.85843   0
 -10   5   1 47.5247 2.90551   0
 -10   5   1 49.3831 2.96833   0
  10  -5  -1  45.551 2.95262   0
  10  -5  -1 45.6714 3.25626   0
 -10   5   0 73.5325 4.36465   0
 -10   5   0 73.3844 4.32233   0
  10  -5   0 66.4009 4.71912   0
  10  -5   0 69.5435 4.32762   0
 -10   5  -1 47.3519 2.93692   0
 -10   5  -1 49.0062 2.96833   0
  10  -5   1 45.8337 2.92645   0
 -11  -4   2 90.1396 5.89519   0
  11   4  -2 101.622 5.99088   0
 -11  -4   1 15.4643 1.30058   0
  11   4  -1 16.2764 1.41033   0
  11   4  -1 19.9367 1.39387   0
  11   4  -1 19.1849 1.38289   0
 -11  -4   0 132.819 9.31511   0
  11   4   0 166.035 9.38168   0
  11   4   0  154.29 9.36504   0
  11   4   0 161.175  9.3373   0
 -11  -4  -1 20.1288 1.25119   0
 -11  -4  -1 15.4368 1.36094   0
  11   4   1 18.6746 1.38838   0
  11   4   1 19.5197 1.41582   0
  11   4   1 18.5154 1.38838   0
 -11  -4  -2 111.839 6.21946   0
 -11  -4  -2 96.8375 6.27793   0
  11   4   2 93.0048 6.29388   0
  11   4   2 98.1079 6.34703   0
  11   4   2 112.057  6.3683   0
 -11  -3   3 108.745 6.88217   0
  11   3  -3 116.479 7.00622   0
 -11  -3   2 6.21741 0.70665   0
  11   3  -2 7.18051 0.83203   0
 -11  -3   1 131.713  9.0446   0
  11   3  -1 154.856 9.09773   0
  11   3  -1 147.477 9.07412   0
  11   3  -1 160.996 9.06821   0
  11   3   0 17.5583  1.2849   0
  11   3   0  16.877 1.29685   0
  11   3   0 17.0443 1.27295   0
  11   3   0 15.6817 1.39247   0
 -11  -3  -1 162.242 9.49329   0
  11   3   1 149.224 9.62317   0
  11   3   1 172.072 9.64679   0
  11   3   1  148.77 9.59956   0
 -11  -3  -2 5.71022 0.77504   0
 -11  -3  -2 7.76749 0.64397   0
  11   3   2 6.95826 0.84912   0
  11   3   2  7.2546 0.82633   0
  11   3   2 7.88147 0.74655   0
 -11  -3  -3 131.527 7.41074   0
  11   3   3 108.443 7.56715   0
  11   3   3 126.452   7.524   0
 -11  -2   4 49.6473 3.14929   0
  11   2  -4 48.8902 3.27547   0
 -11  -2   3 48.6058 3.28877   0
  11   2  -3 53.6637 3.39651   0
  11   2  -3  53.522 3.39084   0
 -11  -2   2 83.2759 5.33789   0
  11   2  -2 84.1184 5.41612   0
  11   2  -2 90.5877 5.39205   0
 -11  -2   1 53.9795 3.78737   0
  11   2  -1 58.6793 3.80612   0
  11   2  -1 64.9791 3.74363   0
  11   2  -1  61.073 3.80612   0
  11   2  -1 59.2605 3.90612   0
 -11  -2   0 135.956 7.59251   0
  11   2   0  132.72 7.75081   0
  11   2   0 113.945 7.72549   0
  11   2   0 133.037 7.70649   0
  11   2   0 115.832 7.85213   0
 -11  -2  -1 51.1921 3.67488   0
 -11  -2  -1 58.3043 3.59988   0
 -11  -2  -1 62.3854 3.53738   0
  11   2   1 61.4667 3.64988   0
  11   2   1 53.9795 3.67488   0
  11   2   1 58.8293 3.68113   0
 -11  -2  -2  77.258 5.60268   0
 -11  -2  -2 94.9928 5.58462   0
 -11  -2  -2 98.7119 5.52445   0
  11   2   2 86.3571 5.69295   0
  11   2   2 96.9065 5.63879   0
 -11  -2  -3 58.1036 3.52126   0
 -11  -2  -3 63.8986 3.44187   0
 -11  -2  -3 54.9679 3.46455   0
  11   2   3 51.9853 3.59497   0
  11   2   3 47.7156 3.52126   0
  11   2   3 53.7885  3.5326   0
 -11  -2  -4 61.2666 3.38062   0
  11   2   4 47.9333 3.41217   0
  11   2   4 52.2446 3.49103   0
 -11  -1   4 67.6489 4.07419   0
  11   1  -4  66.399 4.16617   0
  11   1  -4 60.1444 4.17158   0
 -11  -1   3 40.8855 2.54656   0
  11   1  -3 37.7008 2.62266   0
  11   1  -3 38.0286 2.67535   0
 -11  -1   2 149.055  8.7822   0
  11   1  -2 144.452 8.83826   0
  11   1  -2 140.515 8.97529   0
 -11  -1   1  63.577 3.87673   0
 -11  -1   1 63.4603 3.95452   0
  11   1  -1 63.0065 4.03231   0
  11   1  -1 64.4587 3.98693   0
  11   1  -1 62.0406 4.16845   0
 -11  -1   0 241.455 14.4886   0
 -11  -1   0 241.994  14.436   0
 -11  -1   0 240.646 14.5544   0
  11   1   0 228.873 14.7647   0
  11   1   0 237.682 14.6004   0
  11   1   0 248.956 14.5215   0
  11   1   0 254.839 14.5872   0
 -11  -1  -1 62.0146  3.7341   0
 -11  -1  -1 61.4701 3.83135   0
 -11  -1  -1 63.6224 3.78597   0
  11   1   1  63.214 3.83135   0
  11   1   1 56.1801 3.88321   0
  11   1   1  60.919 3.85728   0
 -11  -1  -2 161.873 9.18083   0
 -11  -1  -2 165.224 9.23066   0
 -11  -1  -2 147.946 9.23689   0
  11   1   2 135.713 9.32409   0
 -11  -1  -3 43.5959   2.529   0
 -11  -1  -3 36.2782 2.56998   0
 -11  -1  -3 42.4251 2.54656   0
  11   1   3 39.4922 2.64608   0
  11   1   3 38.0637 2.61681   0
 -11  -1  -4 71.2253 4.10124   0
 -11  -1  -4 72.3074  4.1283   0
  11   1   4 55.5291 4.29061   0
  11   1   4 64.7055 4.14994   0
  11   1   4 68.1304 4.18781   0
 -11   0   4-0.05464 0.39339   0
 -11   0   4 0.36607 0.33875   0
  11   0  -4-0.01093 0.40431   0
  11   0  -3 189.236 11.3937   0
  11   0  -3 181.672 11.2635   0
 -11   0   2 0.02521 0.32145   0
 -11   0   2-0.06933   0.208   0
 -11   0   2 0.65552 0.19539   0
  11   0  -2 0.35927 0.31515   0
  11   0  -2 0.17018 0.46012   0
 -11   0   1 280.564 16.8738   0
 -11   0   1 269.238 16.9263   0
  11   0  -1 289.992  17.051   0
  11   0  -1 293.584 16.9788   0
  11   0  -1  281.03 17.2349   0
 -11   0   0  0.5128 0.20645   0
 -11   0   0 0.32632 0.16649   0
 -11   0   0 0.19979 0.14651   0
  11   0   0 0.30634 0.45286   0
  11   0   0 0.32632 0.21311   0
  11   0   0  0.4129 0.24641   0
  11   0   0 0.13319 0.27305   0
 -11   0  -1 266.625 16.2763   0
 -11   0  -1 270.906 16.2303   0
 -11   0  -1 280.643 16.2632   0
  11   0   1  260.69 16.3748   0
  11   0   1 280.505 16.3222   0
 -11   0  -2 0.22691  0.2017   0
 -11   0  -2 0.05673   0.208   0
 -11   0  -2 0.03782 0.19539   0
  11   0   2 0.11346 0.33406   0
  11   0   2-0.34036 0.53576   0
  11   0   2 0.13236 0.31515   0
 -11   0  -3 205.543 11.9383   0
 -11   0  -3 209.112 11.9383   0
 -11   0  -3 202.063 11.9205   0
  11   0   3 198.275 11.9974   0
  11   0   3 178.239 11.9974   0
 -11   0  -4 0.16391  0.2404   0
 -11   0  -4 0.09288 0.25133   0
  11   0   4 0.84688 0.32236   0
  11   0   4  0.2404 0.52998   0
  11   0   4  0.2404 0.31689   0
 -11   1   4 76.6846 4.36636   0
  11  -1  -4 63.7154  4.5395   0
 -11   1   3 42.8115 2.61681   0
  11  -1  -3 39.4746 2.89196   0
 -11   1   2  147.51 8.98775   0
 -11   1   2 156.379  8.9566   0
  11  -1  -2 142.745 9.31786   0
 -11   1   1 57.5609 3.60445   0
 -11   1   1 57.8267 3.53962   0
  11  -1  -1  59.441 3.94804   0
  11  -1  -1 57.4183 3.70817   0
 -11   1   0 212.695 13.7524   0
 -11   1   0 216.718 13.8049   0
  11  -1   0 240.975 14.1665   0
  11  -1   0 250.895 13.9035   0
 -11   1  -1 57.4961 3.64334   0
 -11   1  -1 58.2935 3.67576   0
  11  -1   1 66.5332 3.66279   0
  11  -1   1 52.6988  3.9999   0
  11  -1   1 59.4085 3.76652   0
 -11   1  -2 138.061 7.95381   0
 -11   1  -2  142.34 7.96627   0
  11  -1   2 112.107 8.03478   0
  11  -1   2 132.692 8.00364   0
 -11   1  -3 41.4767 2.36508   0
 -11   1  -3 40.4698 2.37093   0
 -11   1  -3 39.0004 2.35923   0
  11  -1   3 33.6965  2.4646   0
  11  -1   3  34.241 2.44118   0
  11  -1   3 33.1404 2.62852   0
 -11   1  -4 67.0753 4.00926   0
 -11   1  -4 71.3064 4.02549   0
  11  -1   4 57.5527 4.23651   0
  11  -1   4  63.737 4.06337   0
  11  -2  -4 48.8639  3.2965   0
 -11   2   3 56.3968 3.39651   0
  11  -2  -3 52.0931 3.65734   0
 -11   2   2 84.7804 5.15735   0
  11  -2  -2 82.8968 5.45223   0
 -11   2   1 51.2608 3.39989   0
 -11   2   1 55.6044 3.34989   0
  11  -2  -1 54.7732 3.73113   0
  11  -2  -1 55.3294 3.49363   0
 -11   2   0 106.865 7.29489   0
 -11   2   0 111.855 7.26322   0
  11  -2   0 130.409 7.36454   0
  11  -2   0 132.473 7.68749   0
 -11   2  -1 51.2608 3.50613   0
 -11   2  -1  53.667 3.54363   0
  11  -2   1 63.8104 3.60613   0
  11  -2   1 57.6043 3.91237   0
 -11   2  -2 82.5056 4.94071   0
 -11   2  -2 79.1356 4.94071   0
  11  -2   2 79.2559 5.01894   0
 -11   2  -3 48.2429 2.93722   0
 -11   2  -3 52.3369 2.94856   0
  11  -2   3 42.9412 3.01093   0
  11  -2   3 41.3875 3.19238   0
 -11   2  -4 49.9049 2.91796   0
  11  -2   4 42.2394 3.17558   0
  11  -2   4 45.8829 2.97579   0
 -11   3   3 117.547 6.63946   0
 -11   3   3 96.6147 6.75273   0
  11  -3  -3 111.501  6.8552   0
 -11   3   2  6.7588 0.69526   0
  11  -3  -2 5.83559 0.99159   0
 -11   3   1  140.61  8.4247   0
 -11   3   1 137.724 8.48964   0
  11  -3  -1 141.337 8.80845   0
 -11   3   0  17.134  1.1594   0
 -11   3   0 15.5921 1.17733   0
  11  -3   0 16.6439 1.59567   0
  11  -3   0 16.9188 1.31478   0
 -11   3  -1  140.87 9.06231   0
 -11   3  -1 149.295 9.09773   0
  11  -3   1 160.919   9.511   0
  11  -3   1 167.691 9.15677   0
  11  -3   1 134.311  9.0387   0
 -11   3  -2 6.72461 0.62687   0
 -11   3  -2 7.19191 0.65536   0
  11  -3   2 5.13464 1.03718   0
  11  -3   2  7.2261 0.86052   0
  11  -3   2 7.59083 1.32213   0
 -11   3  -3 104.899 6.01381   0
 -11   3  -3  104.77 5.98145   0
  11  -3   3 83.1632 6.23494   0
 -11   4   2 100.271 5.99619   0
  11  -4  -2 94.7749 6.21414   0
 -11   4   1 18.6307 1.19631   0
 -11   4   1 18.8831 1.26216   0
  11  -4  -1 16.8636 1.26765   0
  11  -4  -1  14.043 1.70667   0
 -11   4   0 150.995 9.05435   0
 -11   4   0  150.54 9.09873   0
  11  -4   0 154.085 9.49264   0
  11  -4   0 146.545 9.06544   0
 -11   4  -1 19.3715 1.31704   0
 -11   4  -1 18.7843  1.2896   0
  11  -4   1  17.127 1.28412   0
  11  -4   1 21.1275 1.87678   0
 -11   4  -2 98.6129 6.24604   0
 -11   4  -2 94.7058 6.24604   0
  11  -4   2 117.287 6.75635   0
 -12  -4   1 87.6266 6.15845   0
  12   4  -1 107.332   6.211   0
  12   4  -1 106.239 6.21625   0
 -12  -4   0 4.31165 0.72746   0
  12   4   0  6.5896  0.8018   0
  12   4   0 6.72234 0.73808   0
  12   4   0 6.07454 0.69029   0
 -12  -4  -1 90.0647 6.39491   0
  12   4   1 117.746 6.46322   0
  12   4   1 103.611 6.43169   0
  12   4   1 105.697 6.40542   0
 -12  -3   2 97.3268 6.58864   0
  12   3  -2 117.692 6.67577   0
 -12  -3   1 3.30904 0.63592   0
  12   3  -1 5.47567 0.72033   0
  12   3  -1 4.71031 0.63592   0
 -12  -3   0 118.385 8.27029   0
  12   3   0 139.701 8.28168   0
  12   3   0 133.173  8.2646   0
  12   3   0  150.47 8.27598   0
 -12  -3  -1 5.74017 0.65843   0
 -12  -3  -1 3.95621 0.72033   0
  12   3   1 4.67655 0.65843   0
  12   3   1 5.40251 0.94544   0
  12   3   1 5.45316 0.66406   0
  12   3   1 5.42502 0.68094   0
 -12  -3  -2 95.2086 6.44162   0
  12   3   2 118.116 6.47429   0
  12   3   2 95.2903 6.45251   0
  12   3   2 110.597 6.50697   0
 -12  -2   3 68.1739 4.42244   0
  12   2  -3 73.4039 4.49832   0
 -12  -2   2 61.7329 3.95283   0
  12   2  -2  60.209 4.07313   0
  12   2  -2 66.0294 4.00439   0
 -12  -2   1 171.214 10.7628   0
  12   2  -1 189.296 10.7925   0
  12   2  -1 176.378 10.8875   0
  12   2  -1 173.476 10.7806   0
 -12  -2   0  69.968 4.53752   0
  12   2   0  75.996 4.48944   0
  12   2   0 69.6915 4.68176   0
  12   2   0 75.0524 4.53752   0
  12   2   0 71.3383 4.54353   0
 -12  -2  -1 167.201 10.8162   0
 -12  -2  -1 191.243 10.6916   0
  12   2   1 190.317 10.7984   0
  12   2   1 174.045 10.8162   0
  12   2   1 169.694 10.8222   0
 -12  -2  -2  70.051  3.9872   0
 -12  -2  -2 56.7374  4.0273   0
 -12  -2  -2 68.7849 3.92418   0
  12   2   2 58.2326  4.0674   0
  12   2   2 66.4132 4.03876   0
 -12  -2  -3 74.8889 4.60671   0
 -12  -2  -3 83.0725 4.57961   0
  12   2   3 72.6451 4.67717   0
  12   2   3 67.8921  4.7422   0
 -12  -1   3 96.9584 5.66731   0
  12   1  -3  94.027 5.74548   0
  12   1  -3 84.8309 5.79573   0
 -12  -1   2 31.4337 1.95869   0
 -12  -1   2 24.9954 2.03561   0
  12   1  -2 29.8655  2.0297   0
  12   1  -2 32.3568 2.25456   0
 -12  -1   1 170.534 10.4768   0
 -12  -1   1  176.00 10.4093   0
  12   1  -1 167.918 10.5444   0
  12   1  -1 181.183 10.5198   0
  12   1  -1 171.952 10.6979   0
 -12  -1   0 43.9192 2.75545   0
 -12  -1   0 43.5025 2.68703   0
  12   1   0  39.814 2.98559   0
  12   1   0 43.0609 2.81143   0
  12   1   0 44.9144 2.78033   0
 -12  -1  -1 169.342 10.1759   0
 -12  -1  -1 177.934 10.2312   0
 -12  -1  -1 175.035 10.2742   0
  12   1   1 155.126  10.311   0
  12   1   1 180.446 10.2742   0
  12   1   1  162.01 10.2864   0
 -12  -1  -2 35.4043 2.01786   0
 -12  -1  -2 31.6112 2.03561   0
 -12  -1  -2 31.4277  1.9646   0
  12   1   2 31.4218 2.07112   0
  12   1   2 25.9837 2.11846   0
  12   1   2 29.5519 2.13029   0
 -12  -1  -3  97.232 5.66731   0
 -12  -1  -3 98.1142 5.69522   0
  12   1   3 84.2112  5.8069   0
 -12   0   4 122.966 6.98522   0
  12   0  -4 105.699 7.13173   0
 -12   0   3 -0.2482 0.40051   0
 -12   0   3 0.55281 0.28205   0
  12   0  -3-0.16359 0.42871   0
  12   0  -3-0.10154 0.43999   0
 -12   0   2 180.253  10.412   0
 -12   0   2 154.409 10.5017   0
  12   0  -2 181.988 10.7351   0
  12   0  -2 174.987 10.4778   0
 -12   0   1 0.74555 0.20503   0
 -12   0   1 0.13669 0.20503   0
  12   0  -1 0.11183 0.32929   0
  12   0  -1 0.31686  0.2858   0
  12   0  -1 0.11805 0.45976   0
 -12   0   0 172.852 10.4232   0
 -12   0   0  168.44  10.461   0
  12   0   0 180.109  10.568   0
  12   0   0 160.509 10.7505   0
  12   0   0 187.184 10.4988   0
 -12   0  -1 0.22367  0.1926   0
 -12   0  -1-0.03106 0.15532   0
 -12   0  -1 0.10562  0.1926   0
  12   0   1 0.21745 0.20503   0
  12   0   1 0.07456 0.25473   0
  12   0   1 0.22988 0.30443   0
 -12   0  -2 177.746  9.8495   0
 -12   0  -2 144.595 9.86147   0
 -12   0  -2 179.158 9.87344   0
  12   0   2 154.893 9.95123   0
 -12   0  -3  0.0959 0.23128   0
 -12   0  -3 0.09026    0.22   0
 -12   0  -3-0.10154 0.25948   0
  12   0   3 0.65999  0.6205   0
  12   0   3 0.28769 0.34974   0
  12   0   3-0.10154 0.40051   0
 -12   0  -4 110.105 6.58233   0
 -12   0  -4 115.034 6.60326   0
  12   0   4 109.383 6.66605   0
  12   0   4 100.012 6.66605   0
 -12   1   3 75.2831 5.44396   0
 -12   1   3 97.7792 5.31554   0
  12  -1  -3 86.9862 5.61706   0
 -12   1   2 31.2029 1.99419   0
  12  -1  -2 30.4573 2.36699   0
 -12   1   1 164.626 9.85042   0
 -12   1   1 155.353 9.89955   0
  12  -1  -1 170.485 10.2373   0
  12  -1  -1 167.887 10.0162   0
 -12   1   0 38.9806 2.53775   0
 -12   1   0 38.8748 2.48799   0
  12  -1   0 41.2197 2.91717   0
  12  -1   0 41.6054 2.63727   0
 -12   1  -1 157.564 9.64162   0
 -12   1  -1 157.699 9.61706   0
  12  -1   1  158.97  10.004   0
  12  -1   1 165.738 9.73988   0
 -12   1  -2 30.7768 1.92318   0
 -12   1  -2 29.4276 1.88176   0
 -12   1  -2 29.7768 1.90543   0
  12  -1   2 28.6406 2.04153   0
 -12   1  -3 87.6674 5.48305   0
 -12   1  -3 91.0175 5.48863   0
 -12   1  -3 92.2738  5.4998   0
 -12   2   3 60.5864 4.29237   0
 -12   2   3 73.2521 4.15688   0
  12  -2  -3 67.7187  4.4387   0
 -12   2   2 60.2892 3.74086   0
  12  -2  -2 59.9627 4.07313   0
 -12   2   1 163.027 10.1395   0
 -12   2   1 158.468 10.1929   0
  12  -2  -1 175.862 10.2879   0
  12  -2  -1 179.513 10.5372   0
 -12   2   0 64.9737  4.1048   0
 -12   2   0 62.8342 4.14687   0
  12  -2   0  73.616 4.51949   0
 -12   2  -1 166.518  10.656   0
 -12   2  -1 159.555 10.6797   0
  12  -2   1 190.941 11.0596   0
  12  -2   1 192.834  10.745   0
 -12   2  -2 58.3586   3.569   0
 -12   2  -2 55.2823 3.58046   0
  12  -2   2 58.5878 3.67212   0
 -12   2  -3 63.5293 3.84796   0
 -12   2  -3 66.4559  3.8588   0
  12  -2   3 55.9472 3.95093   0
 -12   3   2 106.028  6.3545   0
  12  -3  -2 101.062 6.62676   0
 -12   3   1 4.14755 0.52337   0
 -12   3   1 4.75534 0.58527   0
  12  -3  -1 5.09299 0.87228   0
 -12   3   0 118.254 8.01985   0
 -12   3   0 122.683 8.06539   0
  12  -3   0 146.976 8.13369   0
  12  -3   0 144.915 8.42967   0
 -12   3  -1 5.22806 0.57402   0
 -12   3  -1 5.28433 0.61904   0
  12  -3   1  6.2354 1.10301   0
  12  -3   1 5.31247 0.77661   0
 -12   3  -2 97.3213 6.28916   0
 -12   3  -2 99.7172 6.30005   0
  12  -3   2 113.717 6.73022   0
 -12   4   1 100.747 6.10591   0
 -12   4   1 101.304 6.17422   0
  12  -4  -1  99.665 6.46848   0
 -12   4   0 5.85683 0.61595   0
 -12   4   0 7.24803 0.62126   0
  12  -4   0 5.08689 0.97702   0
  12  -4   0 6.17011 0.63719   0
 -12   4  -1 107.043 6.47899   0
 -12   4  -1 101.194 6.43695   0
  12  -4   1 96.9431 6.42119   0
  12  -4   1 120.074 6.89936   0
 -13  -3   1 81.0673 5.51672   0
  13   3  -1 93.7038  5.5328   0
  13   3  -1 92.5457 5.53816   0
 -13  -3   0 2.75789 0.52015   0
  13   3   0 3.35389 0.53641   0
  13   3   0 3.05047 0.48222   0
 -13  -3  -1 76.9124  5.4363   0
  13   3   1 99.6172 5.44166   0
  13   3   1 86.6698 5.42557   0
  13   3   1 87.1684 5.43094   0
 -13  -2   2 66.7022 4.30618   0
  13   2  -2 73.5758 4.36614   0
  13   2  -2 66.6968 4.43701   0
 -13  -2   1 37.4986 2.82817   0
 -13  -2   1 44.4338 2.82817   0
  13   2  -1 47.9662 2.86761   0
  13   2  -1 44.8057 2.99718   0
  13   2  -1 44.6366 2.87888   0
 -13  -2   0 84.6816 5.07713   0
  13   2   0 79.2682 5.08283   0
  13   2   0 80.1287 5.22529   0
  13   2   0 82.5504 5.06574   0
 -13  -2  -1 42.8902 2.76057   0
  13   2   1 41.2113 2.77747   0
  13   2   1 39.6451 2.95211   0
  13   2   1 45.6845 2.72676   0
  13   2   1 42.4057 2.75493   0
 -13  -2  -2 76.1104 4.20807   0
 -13  -2  -2 64.8598 4.25168   0
 -13  -2  -2  71.777 4.14811   0
  13   2   2 70.3543 4.25713   0
  13   2   2 58.9021 4.26803   0
  13   2   2 65.4213 4.28983   0
 -13  -1   3 20.1545 1.40502   0
  13   1  -3 20.6974 1.53275   0
  13   1  -3 18.9305 1.67112   0
 -13  -1   2 87.0094 5.94855   0
 -13  -1   2 100.479 5.86429   0
  13   1  -2 100.215  5.9317   0
  13   1  -2  95.716 6.07774   0
 -13  -1   1 26.3055 1.58158   0
 -13  -1   1 24.8693 1.63392   0
  13   1  -1 21.5782 1.68043   0
  13   1  -1 25.4914 1.75602   0
  13   1  -1 23.6714 1.93046   0
 -13  -1   0 128.157 7.60268   0
 -13  -1   0 129.104 7.66153   0
  13   1   0 118.842  7.7086   0
  13   1   0 117.847 7.86748   0
  13   1   0  136.13 7.69683   0
 -13  -1  -1 25.9159 1.65136   0
 -13  -1  -1 25.3693 1.65718   0
 -13  -1  -1 25.4275 1.60484   0
  13   1   1 20.2757 1.95372   0
  13   1   1 25.6193 1.73858   0
  13   1   1 24.5843 1.69788   0
 -13  -1  -2 102.563 5.97663   0
 -13  -1  -2 98.6369 6.03842   0
 -13  -1  -2 107.793 6.02719   0
  13   1   2  86.751 6.08336   0
  13   1   2 99.0245 6.07212   0
 -13  -1  -3 21.1019 1.38373   0
 -13  -1  -3 21.7724 1.36244   0
  13   1   3 17.8607 1.56468   0
 -13   0   3 80.7843 5.47517   0
  13   0  -3 94.5609 5.64711   0
 -13   0   2  1.1067 0.40863   0
 -13   0   2 0.10216 0.22134   0
  13   0  -2 0.23837 0.51079   0
 -13   0   1 146.268 8.64098   0
 -13   0   1 138.567 8.68801   0
  13   0  -1 146.262 8.80557   0
  13   0  -1 145.286 8.97604   0
 -13   0   0 0.36295 0.19635   0
 -13   0   0  0.1428 0.20825   0
  13   0   0 0.38675  0.3094   0
  13   0   0  0.3927  0.2856   0
  13   0   0 0.49384 0.47599   0
 -13   0  -1 142.035  8.3941   0
 -13   0  -1 135.405 8.35295   0
 -13   0  -1 139.749 8.41761   0
  13   0   1 148.196 8.45288   0
  13   0   1 129.632 8.72328   0
  13   0   1 141.101 8.51754   0
 -13   0  -2-0.03405 0.19296   0
 -13   0  -2 0.10216 0.20431   0
 -13   0  -2-0.08513 0.22134   0
  13   0   2  0.6697 0.38593   0
  13   0   2  0.3916 0.35755   0
 -13   0  -3 100.847 6.07159   0
 -13   0  -3  99.934 6.08771   0
 -13   1   3 18.4089 1.49549   0
 -13   1   3 20.7825 1.31454   0
  13  -1  -3 17.8128 1.70837   0
 -13   1   2  95.598 5.89238   0
  13  -1  -2  98.401 6.21817   0
 -13   1   1 23.8226 1.53507   0
 -13   1   1 22.2527 1.58158   0
  13  -1  -1 25.9624 1.98861   0
  13  -1  -1 25.9275 1.74439   0
 -13   1   0  118.43 7.32611   0
 -13   1   0 113.728 7.36142   0
  13  -1   0 129.716 7.47322   0
  13  -1   0  125.78 7.71449   0
 -13   1  -1 23.1249 1.57577   0
 -13   1  -1 24.7006 1.56414   0
 -13   1  -1 22.8806 1.51762   0
  13  -1   1  24.846 1.71532   0
  13  -1   1 25.0321 2.00024   0
 -13   1  -2 87.7003 5.45986   0
 -13   1  -2 93.6882 5.50479   0
 -13   1  -2 93.2108 5.49356   0
  13  -1   2 86.5488  5.6059   0
 -13   1  -3 18.9411  1.2081   0
 -13   1  -3 18.7123 1.23471   0
 -13   1  -3 18.2226 1.21875   0
  13  -1   3 15.1572 1.38373   0
 -13   2   2 65.4594 4.00639   0
  13  -2  -2 63.9059 4.30618   0
 -13   2   1 40.4564 2.69859   0
 -13   2   1 40.4057 2.63662   0
  13  -2  -1 43.9775 3.04789   0
  13  -2  -1 46.9465 2.84507   0
 -13   2   0 73.0116 4.76373   0
 -13   2   0 70.6582 4.80932   0
  13  -2   0 84.0718 5.16261   0
  13  -2   0 86.9324 4.91188   0
 -13   2  -1 39.2789 2.63662   0
 -13   2  -1 38.6028 2.59718   0
  13  -2   1 47.2564 2.74366   0
  13  -2   1 41.4254 3.00845   0
 -13   2  -2 61.0933 3.84831   0
 -13   2  -2 60.9897 3.86466   0
  13  -2   2 64.5928 3.96823   0
  13  -2   2 63.5789 4.27893   0
 -13   3   1 81.6034 5.24329   0
 -13   3   1 83.3137 5.18968   0
  13  -3  -1 91.2108 5.58641   0
 -13   3   0 3.08298  0.5039   0
 -13   3   0 3.48393 0.50931   0
  13  -3   0  3.7711 0.75855   0
 -13   3  -1 81.7053 5.24329   0
 -13   3  -1 79.4053  5.2004   0
  13  -3   1 95.1245 5.61858   0
 -14  -2   1 42.6932 2.79631   0
  14   2  -1 45.7729 2.85512   0
  14   2  -1 42.8483 2.86047   0
  14   2  -1 43.5487 2.98879   0
 -14  -2   0 39.9305 2.52875   0
  14   2   0 37.7151 2.56117   0
  14   2   0 39.3523 2.53956   0
  14   2   0 38.5094 2.72327   0
 -14  -2  -1 43.9924 2.70542   0
  14   2   1 41.6078 2.91928   0
  14   2   1 39.5654 2.71611   0
  14   2   1 42.0088 2.71611   0
 -14  -1   2 24.7937 1.80221   0
 -14  -1   2 26.1907 1.69024   0
  14   1  -2 25.3323 1.78622   0
  14   1  -2  24.975 1.95151   0
 -14  -1   1  100.15 6.22084   0
  14   1  -1 97.4524 6.44655   0
  14   1  -1 100.651 6.31442   0
  14   1  -1 110.384  6.2869   0
 -14  -1   0 35.4163 2.15403   0
 -14  -1   0 33.7799 2.19856   0
  14   1   0 35.5221 2.25422   0
  14   1   0 32.8671 2.47129   0
  14   1   0 32.8838 2.28205   0
 -14  -1  -1 107.202 6.00613   0
 -14  -1  -1 102.071 6.03917   0
  14   1   1 102.881  6.0777   0
  14   1   1 89.7232 6.27589   0
  14   1   1 92.2445 6.09422   0
 -14  -1  -2 27.6783 1.67424   0
 -14  -1  -2 26.0468  1.7009   0
 -14  -1  -2 26.6386 1.63159   0
  14   1   2 24.5645 1.76489   0
  14   1   2  22.293 1.78088   0
 -14   0   2 123.567 7.34277   0
 -14   0   2 119.971 7.43967   0
  14   0  -2 119.891 7.59578   0
 -14   0   1 0.05005 0.20574   0
 -14   0   1 0.16126 0.20574   0
  14   0  -1-0.30583  0.3392   0
  14   0  -1 0.18906 0.48933   0
 -14   0   0 173.113 10.4586   0
 -14   0   0  174.26 10.4193   0
  14   0   0 178.022 10.5598   0
  14   0   0  170.29 10.7398   0
 -14   0  -1 0.02224 0.20574   0
 -14   0  -1-0.03336  0.1835   0
  14   0   1 1.04539 0.36144   0
  14   0   1 0.11121 0.51713   0
 -14   0  -2 115.735 6.90673   0
 -14   0  -2 116.854 6.87981   0
 -14   0  -2 122.065 6.93364   0
  14   0   2 102.094 7.00901   0
 -14   1   2 23.9193 1.58893   0
  14  -1  -2 24.7831 1.96217   0
 -14   1   1 100.106  6.0722   0
 -14   1   1 94.0117 6.11624   0
  14  -1  -1 104.015 6.24836   0
  14  -1  -1 106.189 6.46306   0
 -14   1   0  30.535 2.08168   0
 -14   1   0 31.3365 2.04271   0
  14  -1   0 35.6278 2.21526   0
  14  -1   0 34.4089 2.46016   0
 -14   1  -1 95.9055 5.90704   0
 -14   1  -1 94.5182 5.92906   0
  14  -1   1 96.2358  6.2869   0
  14  -1   1 104.345 6.05018   0
 -14   1  -2  23.626 1.48229   0
 -14   1  -2 23.1515 1.49296   0
 -14   1  -2 23.3701 1.46096   0
  14  -1   2 22.8636 1.63159   0
  14  -1   2  18.678 1.93018   0
 -14   2   1 40.1161 2.65195   0
  14  -2  -1 44.5378 2.99948   0
 -14   2   0 35.2674 2.36665   0
 -14   2   0 35.1053 2.32342   0
  14  -2   0  40.514 2.49093   0
  14  -2   0 38.7201 2.72327   0
 -14   2  -1 40.2337 2.62522   0
 -14   2  -1  38.988 2.58779   0
  14  -2   1 41.7308 3.01018   0
  14  -2   1 45.4521  2.7268   0
 -15  -1   0 74.1847 4.53482   0
 -15  -1   0 75.7068 4.49269   0
  15   1   0 74.1847 4.60856   0
  15   1   0 70.8349  4.7613   0
 -15   0   1 91.0072 5.61987   0
  15   0  -1 93.1173 5.73564   0
  15   0  -1 93.0857 5.88298   0
 -15   0   0 0.28182 0.20737   0
 -15   0   0 0.01595 0.19142   0
  15   0   0  0.4626 0.35626   0
  15   0   0-0.22333 0.47324   0
 -15   0  -1 93.4856 5.33572   0
 -15   0  -1 90.4494 5.36203   0
  15   0   1 81.0409 5.64092   0
  15   0   1 86.1188 5.45149   0
 -15   1   0 68.8071 4.45582   0
 -15   1   0 73.8265 4.42422   0
  15  -1   0 76.3757 4.57169   0
  15  -1   0  72.889 4.78764   0
   0   0   0      0.      0.
;
_shelx_hkl_checksum              75742
_olex2_submission_special_instructions 'No special instructions were received'
loop_
_space_group_symop_operation_xyz
'x, y, z'
'-x+1/2, -y, z+1/2'
'-x, y, z'
'x+1/2, -y, z+1/2'
loop_
_atom_site_label
_atom_site_type_symbol
_atom_site_fract_x
_atom_site_fract_y
_atom_site_fract_z
_atom_site_U_iso_or_equiv
_atom_site_adp_type
_atom_site_occupancy
_atom_site_site_symmetry_order
_atom_site_calc_flag
_atom_site_refinement_flags_posn
_atom_site_refinement_flags_adp
_atom_site_refinement_flags_occupancy
_atom_site_disorder_assembly
_atom_site_disorder_group
Pb1 Pb 0.0000 -0.82387(5) -0.14392(15) 0.01651(17) Uani 1 2 d S T P . .
O1 O 0.1363(5) -0.9042(11) -0.635(8) 0.0429(18) Uani 1 1 d . U . . .
O2 O -0.1327(6) -1.2016(12) -0.2800(13) 0.0180(11) Uani 1 1 d . . . . .
Be1 Be -0.2489(11) -1.3208(16) -0.207(2) 0.017(2) Uani 1 1 d . . . . .
O3 O -0.2911(6) -1.6194(13) -0.2370(12) 0.0172(10) Uani 1 1 d . U . . .
B1 B 0.1581(9) -1.1617(15) -0.5750(18) 0.0155(18) Uani 1 1 d . . . . .
loop_
_atom_site_aniso_label
_atom_site_aniso_U_11
_atom_site_aniso_U_22
_atom_site_aniso_U_33
_atom_site_aniso_U_23
_atom_site_aniso_U_13
_atom_site_aniso_U_12
Pb1 0.0165(2) 0.0147(2) 0.0183(2) -0.0002(4) 0.000 0.000
O1 0.0126(19) 0.014(2) 0.102(6) -0.007(8) -0.006(9) -0.0003(16)
O2 0.019(3) 0.021(3) 0.015(3) 0.0015(18) 0.001(2) -0.0026(18)
Be1 0.018(4) 0.012(4) 0.020(7) 0.000(2) -0.001(3) 0.001(2)
O3 0.022(3) 0.015(2) 0.0142(19) -0.0009(18) 0.0020(18) -0.001(2)
B1 0.015(3) 0.016(4) 0.016(5) -0.0009(18) 0.001(2) 0.000(2)
loop_
_atom_type_symbol
_atom_type_description
_atom_type_scat_dispersion_real
_atom_type_scat_dispersion_imag
_atom_type_scat_source
B B 0.0013 0.0007 'International Tables Vol C Tables 4.2.6.8 and 6.1.1.4'
Be Be 0.0005 0.0002 'International Tables Vol C Tables 4.2.6.8 and 6.1.1.4'
O O 0.0106 0.0060 'International Tables Vol C Tables 4.2.6.8 and 6.1.1.4'
Pb Pb -3.3944 10.1111 'International Tables Vol C Tables 4.2.6.8 and 6.1.1.4'
loop_
_geom_angle_atom_site_label_1
_geom_angle_atom_site_label_2
_geom_angle_atom_site_label_3
_geom_angle
_geom_angle_site_symmetry_1
_geom_angle_site_symmetry_3
_geom_angle_publ_flag
O1 Pb1 O1 65.9(8) 3 . ?
O2 Pb1 O1 90.2(3) . . ?
O2 Pb1 O1 90.2(3) 3 3 ?
O2 Pb1 O1 49.5(3) 3 . ?
O2 Pb1 O1 49.5(3) . 3 ?
O2 Pb1 O2 73.8(3) 3 . ?
Be1 O1 Pb1 118.3(12) 4_534 . ?
B1 O1 Pb1 93.4(16) . . ?
B1 O1 Be1 121.5(7) . 4_534 ?
Be1 O2 Pb1 140.7(5) . . ?
B1 O2 Pb1 105.5(4) 3 . ?
B1 O2 Be1 96.2(7) 3 . ?
O1 Be1 O3 92.1(12) 4_435 2_425 ?
O1 Be1 B1 105.8(11) 4_435 3 ?
O2 Be1 O1 116.3(6) . 4_435 ?
O2 Be1 O3 96.1(6) . 2_425 ?
O2 Be1 O3 128.9(8) . . ?
O2 Be1 B1 41.3(4) . 3 ?
O3 Be1 O1 113.8(7) . 4_435 ?
O3 Be1 O3 91.4(5) . 2_425 ?
O3 Be1 B1 114.5(6) . 3 ?
B1 Be1 O3 137.5(6) 3 2_425 ?
Be1 O3 Be1 98.7(5) . 2_424 ?
B1 O3 Be1 119.7(5) 4_425 2_424 ?
B1 O3 Be1 141.5(7) 4_425 . ?
O1 B1 O2 107.6(16) . 3 ?
O1 B1 Be1 127.4(14) . 3 ?
O1 B1 O3 132.8(17) . 4_524 ?
O2 B1 Be1 42.5(5) 3 3 ?
O2 B1 O3 119.3(6) 3 4_524 ?
O3 B1 Be1 88.2(5) 4_524 3 ?
loop_
_geom_bond_atom_site_label_1
_geom_bond_atom_site_label_2
_geom_bond_distance
_geom_bond_site_symmetry_2
_geom_bond_publ_flag
Pb1 O1 2.69(3) . ?
Pb1 O1 2.69(3) 3 ?
Pb1 O2 2.373(6) . ?
Pb1 O2 2.373(6) 3 ?
O1 Be1 1.664(14) 4_534 ?
O1 B1 1.275(12) . ?
O2 Be1 1.409(13) . ?
O2 B1 1.379(10) 3 ?
Be1 O1 1.664(14) 4_435 ?
Be1 O3 2.194(11) 2_425 ?
Be1 O3 1.495(10) . ?
Be1 B1 2.076(13) 3 ?
O3 Be1 2.194(11) 2_424 ?
O3 B1 1.385(10) 4_425 ?
B1 O2 1.379(10) 3 ?
B1 Be1 2.075(13) 3 ?
B1 O3 1.385(10) 4_524 ?
loop_
_twin_individual_id
_twin_individual_mass_fraction_refined
1 0.54(3)
2 0.46(3)
