#------------------------------------------------------------------------------
#$Date: 2022-10-12 00:55:09 +0300 (Wed, 12 Oct 2022) $
#$Revision: 278522 $
#$URL: file:///home/coder/svn-repositories/cod/cif/7/13/08/7130839.cif $
#------------------------------------------------------------------------------
#
# This file is available in the Crystallography Open Database (COD),
# http://www.crystallography.net/
#
# All data on this site have been placed in the public domain by the
# contributors.
#
data_7130839
loop_
_publ_author_name
'Chen, Zilong'
'Li, Zijian'
'Chu, Dongdong'
'Zhang, Fangfang'
'Li, Xiaojing'
'Yang, Zhihua'
'Long, Xifa'
'Pan, Shilie'
_publ_section_title
;
 A2B6O9F2 (A = NH4, K): New members of A2B6O9F2 family with deep-UV cutoff
 edge and moderate birefringence
;
_journal_name_full               'Chemical Communications'
_journal_paper_doi               10.1039/D2CC04193F
_journal_year                    2022
_chemical_formula_moiety         'B6 F2 K2 O9'
_chemical_formula_sum            'B6 F2 K2 O9'
_chemical_formula_weight         325.06
_space_group_crystal_system      orthorhombic
_space_group_IT_number           61
_space_group_name_Hall           '-P 2ac 2ab'
_space_group_name_H-M_alt        'P b c a'
_atom_sites_solution_primary     iterative
_atom_sites_solution_secondary   difmap
_audit_creation_date             2022-02-11
_audit_creation_method
;
Olex2 1.3
(compiled 2020.06.28 svn.raecde09e for OlexSys, GUI svn.r6132)
;
_audit_update_record
;
2022-07-17 deposited with the CCDC.	2022-10-10 downloaded from the CCDC.
;
_cell_angle_alpha                90.00
_cell_angle_beta                 90.00
_cell_angle_gamma                90.00
_cell_formula_units_Z            8
_cell_length_a                   11.7129(10)
_cell_length_b                   10.3030(7)
_cell_length_c                   15.4140(11)
_cell_measurement_reflns_used    1900
_cell_measurement_temperature    300.0
_cell_measurement_theta_max      26.69
_cell_measurement_theta_min      3.48
_cell_volume                     1860.1(2)
_computing_cell_refinement       'SAINT V8.38A (Bruker, 2018)'
_computing_data_reduction        'SAINT V8.38A (Bruker, 2018)'
_computing_molecular_graphics    'Olex2 1.3 (Dolomanov et al., 2009)'
_computing_publication_material  'Olex2 1.3 (Dolomanov et al., 2009)'
_computing_structure_refinement  'XL  (Sheldrick, 2008)'
_computing_structure_solution    'olex2.solve 1.3 (Bourhis et al., 2015)'
_diffrn_ambient_temperature      300.0
_diffrn_detector                 'CCD area detector'
_diffrn_detector_area_resol_mean 5.6
_diffrn_detector_type            'Bruker SMART CCD 6000 area detector'
_diffrn_measured_fraction_theta_full 1.000
_diffrn_measured_fraction_theta_max 1.000
_diffrn_measurement_device       'three-circle diffractometer'
_diffrn_measurement_device_type  'CCD area detector'
_diffrn_measurement_method       'phi and omega scans'
_diffrn_radiation_monochromator  graphite
_diffrn_radiation_probe          x-ray
_diffrn_radiation_type           MoK\a
_diffrn_radiation_wavelength     0.71073
_diffrn_reflns_av_R_equivalents  0.0780
_diffrn_reflns_av_unetI/netI     0.0473
_diffrn_reflns_limit_h_max       15
_diffrn_reflns_limit_h_min       -15
_diffrn_reflns_limit_k_max       13
_diffrn_reflns_limit_k_min       -11
_diffrn_reflns_limit_l_max       19
_diffrn_reflns_limit_l_min       -20
_diffrn_reflns_number            15107
_diffrn_reflns_theta_full        27.48
_diffrn_reflns_theta_max         27.48
_diffrn_reflns_theta_min         2.64
_diffrn_source                   'sealed X-ray tube'
_diffrn_source_current           1.4
_diffrn_source_power             0.07
_diffrn_source_target            Mo
_diffrn_source_voltage           50.0
_diffrn_standards_number         0
_exptl_absorpt_coefficient_mu    1.090
_exptl_absorpt_correction_T_max  0.7278
_exptl_absorpt_correction_T_min  0.6857
_exptl_absorpt_correction_type   none
_exptl_absorpt_process_details
;
SADABS-2016/2 (Bruker,2016/2) was used for absorption correction.
wR2(int) was 0.0809 before and 0.0698 after correction.
The Ratio of minimum to maximum transmission is 0.9422.
The \l/2 correction factor is Not present.
;
_exptl_crystal_colour            colourless
_exptl_crystal_colour_primary    colourless
_exptl_crystal_density_diffrn    2.321
_exptl_crystal_density_method    'not measured'
_exptl_crystal_description       plate
_exptl_crystal_F_000             1264
_exptl_crystal_size_max          0.142
_exptl_crystal_size_mid          0.11
_exptl_crystal_size_min          0.085
_refine_diff_density_max         0.293
_refine_diff_density_min         -0.414
_refine_diff_density_rms         0.085
_refine_ls_extinction_method     none
_refine_ls_goodness_of_fit_ref   1.076
_refine_ls_hydrogen_treatment    none
_refine_ls_matrix_type           full
_refine_ls_number_parameters     172
_refine_ls_number_reflns         2134
_refine_ls_number_restraints     0
_refine_ls_restrained_S_all      1.076
_refine_ls_R_factor_all          0.0558
_refine_ls_R_factor_gt           0.0371
_refine_ls_shift/su_max          0.000
_refine_ls_shift/su_mean         0.000
_refine_ls_structure_factor_coef Fsqd
_refine_ls_weighting_details
'calc w=1/[\s^2^(Fo^2^)+(0.0200P)^2^+2.3377P] where P=(Fo^2^+2Fc^2^)/3'
_refine_ls_weighting_scheme      calc
_refine_ls_wR_factor_gt          0.0760
_refine_ls_wR_factor_ref         0.0891
_reflns_number_gt                1575
_reflns_number_total             2134
_reflns_threshold_expression     >2sigma(I)
_iucr_refine_instructions_details
;
TITL 11_a.res in Pbca
REM Old TITL 11 in Pbca
REM SHELXT solution in Pbca
REM R1 0.125, Rweak 0.001, Alpha 0.019, Orientation as input
REM Formula found by SHELXT: B6 O8 F3 K2
CELL 0.71073 11.7129 10.303 15.414 90 90 90
ZERR 8 0.001 0.0007 0.0011 0 0 0
LATT 1
SYMM 0.5-X,-Y,0.5+Z
SYMM -X,0.5+Y,0.5-Z
SYMM 0.5+X,0.5-Y,-Z
SFAC B F K O
UNIT 48 16 16 72
 
L.S. 20
PLAN  5
SIZE 0.085 0.11 0.142
TEMP 26.85
CONF
FREE B4 K2
list 4
MORE -1
fmap 2
acta
SHEL 0.77 999
REM <olex2.extras>
REM <HklSrc "%.\\11.hkl">
REM </olex2.extras>
 
WGHT    0.020000    2.337700
FVAR       0.39273
K2    3    0.571907    0.632285    0.353194    11.00000    0.03098    0.02767 =
         0.03502   -0.00287   -0.00615    0.00696
K1    3    0.431893    0.260949    0.409658    11.00000    0.02819    0.02170 =
         0.05179   -0.00598    0.00262   -0.00175
F2    2    0.591067    0.429093    0.451359    11.00000    0.02174    0.04836 =
         0.03052   -0.00339   -0.00675    0.00373
O1    4    0.778879    0.354549    0.473194    11.00000    0.01911    0.01657 =
         0.02133    0.00283    0.00217   -0.00020
O2    4    0.946275    0.385440    0.395177    11.00000    0.01763    0.01915 =
         0.02973    0.00525    0.00368    0.00360
O9    4    0.880392    1.007810    0.119226    11.00000    0.01602    0.02219 =
         0.03127    0.00828   -0.00109   -0.00175
O6    4    0.940432    0.856423    0.231362    11.00000    0.01748    0.02583 =
         0.02507    0.00798   -0.00027   -0.00074
O4    4    0.961879    0.561958    0.292312    11.00000    0.01779    0.02269 =
         0.02837    0.00625    0.00336    0.00194
O7    4    0.746702    0.863925    0.183745    11.00000    0.01619    0.02881 =
         0.03581    0.01591   -0.00126   -0.00179
O3    4    0.793161    0.533712    0.376074    11.00000    0.01884    0.02332 =
         0.03335    0.01080    0.00698    0.00712
F1    2    0.627978    0.288080    0.557981    11.00000    0.04627    0.03329 =
         0.05877    0.01441    0.02503   -0.00648
O5    4    0.800141    0.702391    0.278620    11.00000    0.01810    0.02480 =
         0.03461    0.01485    0.00239    0.00273
O8    4    0.684815    0.998590    0.073472    11.00000    0.01744    0.03588 =
         0.03934    0.02019   -0.00501   -0.00409
B2    1    0.840111    0.424575    0.416164    11.00000    0.01754    0.01536 =
         0.02161    0.00035   -0.00055    0.00049
B1    1    0.674736    0.394147    0.514329    11.00000    0.01778    0.01926 =
         0.02154    0.00026    0.00190   -0.00414
B4    1    0.855805    0.598463    0.314696    11.00000    0.01510    0.02037 =
         0.02318    0.00285   -0.00047   -0.00114
B5    1    0.833209    0.808578    0.230534    11.00000    0.01769    0.01964 =
         0.02442    0.00267    0.00343    0.00224
B3    1    1.022155    0.451240    0.335224    11.00000    0.01597    0.01924 =
         0.02442   -0.00321    0.00103    0.00020
B6    1    0.773310    0.960894    0.123213    11.00000    0.01928    0.02225 =
         0.02696    0.00716    0.00191   -0.00038
HKLF 4
 
REM  11_a.res in Pbca
REM R1 =  0.0371 for   1575 Fo > 4sig(Fo)  and  0.0558 for all   2134 data
REM    172 parameters refined using      0 restraints
 
END  
     
WGHT      0.0199      2.3400 
REM Highest difference peak  0.293,  deepest hole -0.414,  1-sigma level  0.085
Q1    1   0.3318  0.2673  0.3662  11.00000  0.05    0.29
Q2    1   0.3590  0.3688  0.4039  11.00000  0.05    0.28
Q3    1   0.7053  1.0611  0.0966  11.00000  0.05    0.28
Q4    1   0.3852  0.2026  0.3297  11.00000  0.05    0.28
Q5    1   0.6053  0.9357  0.1233  11.00000  0.05    0.28

  REM The information below was added by Olex2.
  REM
  REM R1 = 0.0371 for 1575 Fo > 4sig(Fo) and 0.0558 for all 21107 data
  REM 172 parameters refined using n/a restraints
  REM Highest difference peak 0.29, deepest hole -0.41
  REM Mean Shift 0, Max Shift 0.000.

  REM +++ Tabular Listing of Refinement Information +++
  REM R1_all = 0.0558
  REM R1_gt = 0.0371
  REM wR_ref = 0.0891
  REM GOOF = 1.076
  REM Shift_max = 0.000
  REM Shift_mean = 0
  REM Reflections_all = 21107
  REM Reflections_gt = 1575
  REM Parameters = 172
  REM Hole = -0.41
  REM Peak = 0.29
  REM Flack = n/a

  
;
_cod_data_source_file            d2cc04193f2.cif
_cod_data_source_block           11
_cod_database_code               7130839
_olex2_refinement_description
;
;
_olex2_submission_special_instructions 'No special instructions were received'
loop_
_space_group_symop_id
_space_group_symop_operation_xyz
1 'x, y, z'
2 '-x+1/2, -y, z+1/2'
3 '-x, y+1/2, -z+1/2'
4 'x+1/2, -y+1/2, -z'
5 '-x, -y, -z'
6 'x-1/2, y, -z-1/2'
7 'x, -y-1/2, z-1/2'
8 '-x-1/2, y-1/2, z'
loop_
_atom_site_label
_atom_site_type_symbol
_atom_site_fract_x
_atom_site_fract_y
_atom_site_fract_z
_atom_site_U_iso_or_equiv
_atom_site_adp_type
_atom_site_occupancy
_atom_site_symmetry_multiplicity
_atom_site_calc_flag
_atom_site_refinement_flags
_atom_site_disorder_assembly
_atom_site_disorder_group
K2 K 0.57191(6) 0.63228(6) 0.35319(4) 0.03123(18) Uani 1 1 d . . .
K1 K 0.43189(6) 0.26095(6) 0.40966(5) 0.03389(19) Uani 1 1 d . . .
F2 F 0.59107(14) 0.42909(18) 0.45136(11) 0.0335(4) Uani 1 1 d . . .
O1 O 0.77888(15) 0.35455(16) 0.47319(11) 0.0190(4) Uani 1 1 d . . .
O2 O 0.94628(16) 0.38544(17) 0.39518(12) 0.0222(4) Uani 1 1 d . . .
O9 O 0.88039(16) 1.00781(18) 0.11923(13) 0.0232(4) Uani 1 1 d . . .
O6 O 0.94043(16) 0.85642(17) 0.23136(12) 0.0228(4) Uani 1 1 d . . .
O4 O 0.96188(16) 0.56196(17) 0.29231(13) 0.0230(4) Uani 1 1 d . . .
O7 O 0.74670(17) 0.86393(18) 0.18375(13) 0.0269(4) Uani 1 1 d . . .
O3 O 0.79316(16) 0.53371(18) 0.37607(13) 0.0252(4) Uani 1 1 d . . .
F1 F 0.62798(18) 0.28808(18) 0.55798(14) 0.0461(5) Uani 1 1 d . . .
O5 O 0.80014(16) 0.70239(18) 0.27862(13) 0.0258(5) Uani 1 1 d . . .
O8 O 0.68482(17) 0.9986(2) 0.07347(14) 0.0309(5) Uani 1 1 d . . .
B2 B 0.8401(3) 0.4246(3) 0.41616(19) 0.0182(6) Uani 1 1 d . . .
B1 B 0.6747(3) 0.3941(3) 0.5143(2) 0.0195(6) Uani 1 1 d . . .
B4 B 0.8558(3) 0.5985(3) 0.3147(2) 0.0196(6) Uani 1 1 d . . .
B5 B 0.8332(3) 0.8086(3) 0.2305(2) 0.0206(6) Uani 1 1 d . . .
B3 B 1.0222(3) 0.4512(3) 0.3352(2) 0.0199(6) Uani 1 1 d . . .
B6 B 0.7733(3) 0.9609(3) 0.1232(2) 0.0228(6) Uani 1 1 d . . .
loop_
_atom_site_aniso_label
_atom_site_aniso_U_11
_atom_site_aniso_U_22
_atom_site_aniso_U_33
_atom_site_aniso_U_23
_atom_site_aniso_U_13
_atom_site_aniso_U_12
K2 0.0310(4) 0.0277(3) 0.0350(4) -0.0029(3) -0.0062(3) 0.0070(3)
K1 0.0282(4) 0.0217(3) 0.0518(4) -0.0060(3) 0.0026(3) -0.0018(3)
F2 0.0217(9) 0.0484(11) 0.0305(10) -0.0034(8) -0.0067(7) 0.0037(8)
O1 0.0191(10) 0.0166(9) 0.0213(9) 0.0028(7) 0.0022(7) -0.0002(7)
O2 0.0176(10) 0.0191(9) 0.0297(11) 0.0052(7) 0.0037(8) 0.0036(7)
O9 0.0160(10) 0.0222(10) 0.0313(11) 0.0083(8) -0.0011(8) -0.0018(7)
O6 0.0175(10) 0.0258(10) 0.0251(10) 0.0080(7) -0.0003(8) -0.0007(8)
O4 0.0178(10) 0.0227(10) 0.0284(10) 0.0062(8) 0.0034(8) 0.0019(7)
O7 0.0162(10) 0.0288(10) 0.0358(11) 0.0159(8) -0.0013(9) -0.0018(8)
O3 0.0188(10) 0.0233(10) 0.0333(11) 0.0108(8) 0.0070(8) 0.0071(8)
F1 0.0463(12) 0.0333(10) 0.0588(13) 0.0144(9) 0.0250(10) -0.0065(9)
O5 0.0181(10) 0.0248(10) 0.0346(11) 0.0149(8) 0.0024(8) 0.0027(8)
O8 0.0174(10) 0.0359(11) 0.0393(12) 0.0202(9) -0.0050(9) -0.0041(8)
B2 0.0175(15) 0.0154(13) 0.0216(15) 0.0003(11) -0.0005(12) 0.0005(11)
B1 0.0178(15) 0.0193(14) 0.0215(15) 0.0003(11) 0.0019(11) -0.0041(11)
B4 0.0151(15) 0.0204(14) 0.0232(15) 0.0029(11) -0.0005(11) -0.0011(11)
B5 0.0177(15) 0.0196(14) 0.0244(16) 0.0027(11) 0.0034(12) 0.0022(11)
B3 0.0160(15) 0.0192(14) 0.0244(16) -0.0032(11) 0.0010(12) 0.0002(11)
B6 0.0193(16) 0.0223(15) 0.0270(16) 0.0072(12) 0.0019(12) -0.0004(12)
loop_
_atom_type_symbol
_atom_type_description
_atom_type_scat_dispersion_real
_atom_type_scat_dispersion_imag
_atom_type_scat_source
B B 0.0013 0.0007 'International Tables Vol C Tables 4.2.6.8 and 6.1.1.4'
F F 0.0171 0.0103 'International Tables Vol C Tables 4.2.6.8 and 6.1.1.4'
K K 0.2009 0.2494 'International Tables Vol C Tables 4.2.6.8 and 6.1.1.4'
O O 0.0106 0.0060 'International Tables Vol C Tables 4.2.6.8 and 6.1.1.4'
loop_
_diffrn_refln_index_h
_diffrn_refln_index_k
_diffrn_refln_index_l
_diffrn_refln_intensity_net
_diffrn_refln_intensity_u
0 2 0 246.68 14.4
0 3 0 -0.1 2.9
0 4 0 177.58 14.8
0 5 0 -2.5 2.5
0 6 0 101.79 15.5
0 7 0 -3.4 2.6
0 7 0 0.3 1.7
0 8 0 1692.73 85.19
0 9 0 5.3 6.1
0 9 0 -0.6 2
0 10 0 243.48 16.4
0 11 0 2.3 3.3
0 11 0 -0.6 6.6
0 12 0 98.69 22.7
0 12 0 130.39 14.2
0 13 0 -3.8 8.3
0 14 0 60.99 23.9
1 0 0 -0.8 0.8
-1 1 0 -2.2 1.4
1 -1 0 -0.2 1.4
1 1 0 -1 1
-1 1 0 0.2 1.2
1 -1 0 0.3 1.2
-1 -1 0 0.9 1.3
1 -2 0 1.3 1.2
1 -2 0 2.5 2.6
-1 2 0 0.7 2.5
-1 2 0 -0.6 1.2
1 2 0 1 1.4
1 3 0 1.4 1.5
1 -3 0 3.3 3.4
-1 3 0 -0.9 2.6
-1 3 0 0.3 1.5
-1 4 0 -1 2.7
-1 4 0 0.7 1.5
-1 4 0 -0.1 1.3
1 4 0 -1.5 1.3
1 -4 0 2.8 3.4
1 5 0 3.2 3.6
1 -5 0 0.2 3.4
-1 5 0 -2.9 2.7
1 5 0 1.5 1.5
-1 5 0 3.2 1.9
-1 5 0 0.4 1.6
1 6 0 -2.7 2.2
-1 6 0 1 1.6
-1 6 0 1.3 3.4
1 6 0 -0.4 1.7
1 7 0 -3.8 2.4
-1 7 0 1.2 3.7
1 7 0 -1.8 1.2
-1 7 0 -0.7 1.7
1 8 0 1 2.3
1 8 0 -2.2 3.1
-1 8 0 1.3 2.4
-1 8 0 -2.7 3.1
-1 9 0 1.3 2.9
1 9 0 1.7 4.9
-1 9 0 -1.3 4.2
1 10 0 -0.6 2.8
-1 10 0 -1.8 2.2
-1 10 0 -2.2 5.1
1 11 0 5.5 7.5
-1 11 0 -3 5.7
1 11 0 3.3 3.6
1 12 0 0.2 3.6
1 12 0 4.8 9.1
-1 12 0 -3.5 6.6
-1 13 0 -1.1 9.2
1 13 0 2.8 10.6
1 14 0 -2.2 13
-1 14 0 -6.8 11.6
-2 0 0 160.78 11.6
2 0 0 174.98 11.9
2 -1 0 1.6 2.4
-2 -1 0 1.3 2.2
-2 1 0 2.6 2.2
2 -1 0 -0.1 2.2
2 1 0 3.5 2.7
-2 2 0 554.04 27.7
2 2 0 542.25 26.6
-2 -2 0 554.44 26.2
-2 2 0 528.75 26.7
2 -2 0 530.85 25.9
2 -2 0 515.95 27.4
-2 3 0 334.67 21.1
2 -3 0 325.17 16.8
2 -3 0 354.06 21.8
2 3 0 337.37 18.7
-2 3 0 329.27 18.9
2 -3 0 345.37 17
-2 4 0 195.18 13.3
2 4 0 208.68 13.4
2 -4 0 167.38 15.6
-2 4 0 227.38 17.4
2 5 0 466.85 23.6
2 -5 0 400.56 33
-2 5 0 417.16 23.2
-2 5 0 442.86 28.7
-2 6 0 1759.42 78.89
2 -6 0 1885.31 88.49
2 6 0 1933.11 79.19
2 -7 0 1320.37 68.59
2 7 0 1261.47 66.69
2 7 0 1276.17 57.39
-2 7 0 1255.97 67.09
-2 8 0 278.47 25.2
2 8 0 201.38 25.3
2 8 0 237.48 16.8
2 9 0 1395.36 75.89
2 9 0 1360.26 62.69
-2 9 0 1393.76 76.49
2 10 0 326.67 54.59
-2 10 0 303.07 36.4
2 10 0 330.67 21.7
-2 11 0 117.59 23.1
2 11 0 139.89 16.1
2 11 0 141.09 25.3
2 12 0 -1.3 7.3
2 12 0 3.2 4.5
-2 13 0 -1.3 8.9
2 13 0 -0.5 4.4
2 13 0 2.6 10.3
-2 14 0 0.5 13.7
2 14 0 3.7 14.3
-3 0 0 -1.8 1.8
3 0 0 -0.9 2.6
-3 -1 0 -3.5 2.1
-3 1 0 2.9 3.5
3 -1 0 1.1 2.9
3 -1 0 5 3.2
3 1 0 0 2.2
-3 2 0 0.4 2.5
3 2 0 -2.3 2.2
3 -2 0 -0.8 2.7
3 -2 0 0.7 2.7
-3 2 0 1 3.2
-3 -2 0 -1 2.3
-3 3 0 2.7 3.2
3 -3 0 0.3 2.2
-3 3 0 -0.9 2
3 -3 0 -1.2 2.7
3 3 0 1.4 2.6
3 -4 0 -0.5 1.7
-3 4 0 0.5 3.1
3 -4 0 -4.7 1.9
-3 4 0 -1.4 2
3 -4 0 0.7 1.8
3 4 0 -0.8 2.2
3 5 0 2.3 2.5
3 -5 0 2.5 4.3
-3 5 0 -0.3 2.1
-3 5 0 0.6 3.5
-3 6 0 2.8 4.3
3 6 0 4 3.3
-3 6 0 1.3 3.2
3 -6 0 -0.6 3.2
3 -7 0 -4.2 3
-3 7 0 -1.2 3.3
3 8 0 -0.2 4.5
3 -8 0 -1.9 4.2
3 8 0 2.5 2.9
-3 8 0 1.5 5.1
-3 9 0 -2.5 3.9
3 9 0 -2.1 2.3
3 9 0 7.6 6.7
3 10 0 -1.9 5.1
3 10 0 -0.4 3.4
-3 10 0 -1.1 5
3 11 0 0.4 4.6
-3 11 0 -2.5 6.1
3 11 0 2.5 7.4
-3 12 0 2.3 8.4
3 12 0 -0.9 4.6
3 12 0 -1.9 8
3 13 0 -1.7 5.1
3 13 0 0.4 10.2
-3 13 0 -0.9 9.8
3 14 0 -0.6 14.1
-3 14 0 6.9 15.6
4 0 0 160.78 18.8
4 1 0 5753.42 420.76
-4 1 0 5991.7 428.96
-4 -1 0 5032.8 404.06
-4 1 0 5582.24 437.06
-4 -2 0 91.59 12.2
4 2 0 103.49 13.3
-4 2 0 82.19 13.3
4 -2 0 93.89 12.4
4 -2 0 86.09 12.1
-4 -3 0 1478.85 69.39
-4 3 0 1507.95 71.49
4 -3 0 1566.34 69.89
4 -3 0 1549.54 71.49
-4 3 0 1554.04 71.09
4 3 0 1535.35 71.29
4 -4 0 635.54 33.8
4 -4 0 665.63 38.7
-4 4 0 662.03 38
4 4 0 654.63 37
-4 5 0 56.59 11
4 -5 0 78.49 9.3
4 -5 0 65.69 8.6
4 -5 0 65.19 12.9
4 5 0 81.39 15
4 6 0 133.59 16.5
4 -6 0 84.79 14.7
-4 6 0 130.99 18.6
-4 7 0 1070.09 59.99
4 -7 0 992.1 59.49
4 7 0 1071.29 54.09
4 8 0 20.6 6.9
-4 8 0 17.5 8.1
4 -8 0 14.5 9.7
4 -9 0 567.44 43.1
4 9 0 542.15 34.1
-4 9 0 477.45 45.2
4 10 0 361.76 27.1
-4 10 0 317.37 38.4
4 10 0 413.56 36.2
-4 11 0 348.17 41.3
4 11 0 322.47 25.8
4 11 0 338.67 40.5
4 12 0 130.59 25.9
4 12 0 110.19 17.3
-4 12 0 135.19 28.4
4 13 0 24 16.3
4 13 0 40.6 11.9
4 14 0 -1.3 15.7
5 0 0 -0.2 2.7
-5 0 0 -0.4 2.9
5 1 0 -0.8 2.4
5 -1 0 1.8 3.5
-5 -1 0 0.9 3.3
-5 1 0 0.4 3.4
5 2 0 3.8 4.6
5 -2 0 2.1 3.3
5 -2 0 3.4 4.1
-5 -2 0 -1.6 2.4
-5 2 0 -2 2.4
5 -3 0 -0.9 2.4
-5 3 0 0.4 3
5 3 0 -1.1 3
5 -3 0 -3.9 1.6
-5 -3 0 -0.1 2.7
5 -4 0 -0.7 2.5
-5 4 0 1.1 3.9
5 4 0 1 3.3
-5 4 0 1.1 3.5
5 -4 0 2.9 4
5 -5 0 1.8 2.8
5 -5 0 -1.1 2.2
-5 5 0 0 3.9
-5 5 0 -1.6 2.2
5 -5 0 4.7 4.8
5 5 0 0.6 2.7
5 -6 0 -2 1.8
5 -6 0 -0.6 4.1
5 6 0 4 4.2
5 -6 0 0.1 1.8
-5 6 0 -1.6 2.3
-5 6 0 -1.9 3.4
-5 7 0 -4.6 3.2
-5 7 0 3 4.1
5 -7 0 -1.2 3.7
5 7 0 2.3 3.9
5 -8 0 -0.7 4.8
5 8 0 4.9 5.1
-5 8 0 0.5 4.7
5 -9 0 -5.8 3.1
-5 9 0 1.6 6.1
5 9 0 1.8 5
5 10 0 1.8 7.5
5 10 0 -1.5 4.5
-5 10 0 -4.3 5.6
5 -10 0 -5.9 3.8
5 11 0 0.7 7.3
-5 11 0 -4.1 6.8
5 11 0 -2.9 4.2
5 12 0 -1.2 5.9
-5 12 0 -1.7 8.6
5 12 0 1.4 9.5
-5 13 0 -3 11.6
5 13 0 0.9 13.9
5 13 0 2.4 7.8
5 14 0 -0.8 18.1
-5 14 0 -3.5 26.1
-6 0 0 4512.45 192.28
6 -1 0 893.41 50.99
-6 1 0 916.51 52.19
-6 -1 0 916.01 51.59
6 -2 0 837.12 46.3
-6 2 0 776.72 48.4
-6 -2 0 882.71 49.3
6 2 0 895.01 50.29
6 -2 0 838.62 48.2
6 -3 0 364.06 27.2
-6 -3 0 425.36 29.2
-6 3 0 343.47 28.2
6 -3 0 362.36 27.2
6 -4 0 774.82 45.9
-6 4 0 723.43 45.9
6 -4 0 759.62 43.7
6 4 0 793.52 46.7
6 -5 0 466.45 29.2
-6 5 0 480.35 32.7
-6 5 0 363.16 30.2
6 -5 0 385.96 31.4
6 5 0 420.76 31.5
6 6 0 13.5 6.9
6 -6 0 11.3 7.3
-6 6 0 32.4 10.4
-6 6 0 37.7 10.4
6 -6 0 22.1 6.3
6 -6 0 27.2 7.1
6 -7 0 1632.24 68.19
6 -7 0 1601.54 84.39
-6 7 0 1536.95 82.89
-6 7 0 1486.05 80.19
6 7 0 1558.14 80.19
6 -8 0 1275.57 73.99
6 8 0 1246.78 68.29
6 9 0 32.3 11
6 -9 0 67.79 17
-6 9 0 51.09 14.7
6 10 0 803.62 51.09
-6 10 0 762.42 56.89
6 -10 0 895.21 61.29
6 11 0 4.3 7.2
6 11 0 8.3 11.7
-6 11 0 0.3 8.9
6 -11 0 7 8.8
-6 12 0 44.8 18.3
6 12 0 9.7 10.1
6 12 0 34.9 17.4
-6 13 0 3.9 16.1
6 13 0 -0.8 12.5
6 13 0 2.6 11.3
6 14 0 16.5 21.6
7 0 0 -1 3.2
-7 -1 0 2.5 5.1
7 1 0 4.8 4.3
7 -1 0 -1.9 2.5
-7 1 0 -3.3 3.7
-7 -2 0 2.7 4.6
-7 2 0 -3.1 2.2
7 -2 0 -0.3 3.8
7 -2 0 -4 2.6
7 2 0 3.8 5
7 -3 0 1.5 4.1
-7 -3 0 1.6 4
-7 3 0 3 4.2
7 -3 0 -1.6 2.9
7 3 0 1.9 3.8
7 4 0 -0.4 3
7 -4 0 -4.3 2.5
7 -4 0 -1.1 3.5
-7 4 0 -1.3 3.6
7 5 0 -1.8 2.7
7 -5 0 -1.1 2.7
7 -5 0 1.3 5.1
-7 5 0 -2.3 2.5
7 -6 0 -4.7 3.3
7 -6 0 0.5 3.2
-7 6 0 -4.2 2.3
7 -6 0 -4.3 2
7 6 0 -2.8 3.3
7 -7 0 4.3 4.2
7 -7 0 -0.9 2.8
7 -7 0 -3.1 3.2
-7 7 0 -0.7 3.7
7 7 0 2.1 5.9
-7 7 0 0.2 5.2
7 -8 0 -4.9 4.5
-7 8 0 -0.9 5.5
7 8 0 4.6 6.6
7 9 0 -3 4.7
-7 9 0 5.5 8
7 -9 0 4.7 7.1
7 -10 0 -4.6 4.3
7 10 0 -1.8 5.8
-7 10 0 3.2 9.7
-7 11 0 -0.9 8.3
7 -11 0 -1.3 7
7 -12 0 -2 7.7
7 12 0 -2 10.4
-7 12 0 -2.6 10.9
7 12 0 2.8 8.8
-7 13 0 -4 16.4
7 13 0 -0.8 14.9
-8 0 0 3755.62 175.68
8 0 0 4104.69 176.88
8 -1 0 476.65 36.2
-8 1 0 449.95 36.3
-8 -1 0 418.16 35.1
-8 -2 0 404.56 33.2
-8 2 0 409.16 34.2
8 -2 0 414.36 33.1
8 2 0 381.56 33
8 -2 0 374.76 30
8 -3 0 5.1 5.4
-8 3 0 1.6 4.5
8 -3 0 24.9 8.5
-8 -3 0 5.6 5.5
8 3 0 -3.1 3.1
8 4 0 30.9 10.4
8 -4 0 27.6 9.5
8 -4 0 34.4 10.3
-8 4 0 29.8 9.4
8 5 0 333.37 31
8 -5 0 326.17 29.7
-8 5 0 302.27 30.2
8 -5 0 296.77 26.5
8 -6 0 172.68 25.2
8 6 0 207.68 31
-8 6 0 142.89 24.8
8 -6 0 209.38 20.3
8 -7 0 83.09 14
8 7 0 70.59 16.2
8 -7 0 59.69 16
-8 7 0 98.99 21.1
8 -7 0 71.49 13
8 8 0 491.35 41.3
8 -8 0 526.05 44.3
8 -8 0 567.74 30.7
8 9 0 132.19 25.9
8 -9 0 151.08 27.1
8 10 0 106.49 23.1
8 -10 0 114.09 25
-8 10 0 84.09 20.7
8 11 0 25.7 13.9
-8 11 0 24.2 15
8 -11 0 32.9 15.4
-8 12 0 -0.6 12
8 -12 0 -3.1 8.5
8 12 0 -5.4 19.9
-9 0 0 -1.5 2.7
9 0 0 1.2 4.9
-9 1 0 -1.7 4.9
-9 -1 0 4.4 5.9
9 1 0 -2.9 2.6
9 -1 0 0.2 3.6
-9 2 0 -3.6 2.1
9 -2 0 -0.4 3.6
9 2 0 0.3 4.7
-9 -2 0 -0.7 3.8
9 -2 0 7.6 7
9 -3 0 -2.8 4.5
9 -3 0 -2.4 4.1
-9 3 0 2.6 5.9
9 -4 0 1.8 4.3
9 4 0 4.8 6.6
9 -4 0 -0.6 4.8
-9 4 0 -2.6 3.2
9 -5 0 2.5 5.1
-9 5 0 15.1 8.4
9 5 0 0.3 5.1
9 -5 0 2.1 6.1
-9 6 0 -1.8 3.6
9 6 0 -0.6 4.9
9 -6 0 0 5.2
9 -6 0 -3.6 2.9
9 -7 0 3.2 4.7
9 -7 0 3.1 6.8
9 7 0 -2.9 4.8
9 -7 0 2.3 4.1
9 8 0 -0.6 6.6
9 -8 0 14.1 9.7
9 -8 0 0.6 3.7
9 -8 0 0.2 3.7
9 9 0 -3.9 6.4
9 -9 0 3.7 7.7
9 -10 0 1.2 8.2
9 10 0 6.6 11
9 11 0 0.3 10.8
9 -12 0 1.6 10
9 12 0 -3.8 13
9 -13 0 -5 9.7
-10 0 0 249.18 32.5
10 0 0 301.87 36.1
10 -1 0 607.04 47.5
10 1 0 578.64 46.9
-10 -1 0 684.33 50.19
-10 1 0 634.44 49.6
-10 -2 0 172.38 25.7
10 -2 0 188.18 25.4
-10 2 0 150.88 23.8
10 -2 0 177.08 26.3
10 2 0 243.08 34.7
10 -3 0 37.3 10.6
-10 3 0 17.9 10.8
10 -3 0 19.5 11.6
10 -4 0 459.95 38.4
-10 4 0 558.04 45.6
10 -4 0 439.66 38.3
10 5 0 373.16 37.9
-10 5 0 417.26 39.8
10 -5 0 435.96 36.6
10 -6 0 167.98 27.2
10 -6 0 243.18 29.6
10 6 0 214.48 32.3
-10 6 0 147.59 26.1
10 -7 0 129.59 24.1
10 -7 0 93.39 17.9
10 -7 0 116.49 19.5
10 7 0 123.79 26.3
10 8 0 150.98 28.2
10 -8 0 184.08 22.5
10 -8 0 110.29 24.4
10 -8 0 170.08 21.6
10 -9 0 237.68 36.2
10 9 0 327.37 44.9
10 10 0 22 16.1
10 -10 0 11.7 12
10 -11 0 13.3 12.5
10 11 0 9.5 19.4
10 -12 0 -2.9 9.6
-11 0 0 -1.9 4
-11 1 0 0.5 6.1
11 -1 0 -4.6 3.7
11 -1 0 5.8 6.8
-11 -1 0 -2.4 3.6
-11 2 0 -0.9 4.6
11 -2 0 -2.6 3.1
11 -2 0 16.9 12.8
11 2 0 -2.6 4.7
-11 3 0 3.8 7.6
11 -3 0 2.5 6.3
11 -4 0 2.6 6.1
11 4 0 3.5 6.9
-11 4 0 -1.8 4.5
11 -4 0 1.4 6.4
11 -5 0 -0.8 5.5
11 5 0 3.7 7.6
-11 5 0 -3.7 3.7
11 -5 0 0.1 5.5
11 6 0 -2.5 6.9
11 -6 0 3.2 7
11 -6 0 -1.1 5
11 -7 0 -2.7 4.9
11 7 0 4 10
11 -7 0 -3.7 3.1
11 -7 0 2.8 6.8
11 -8 0 -3.8 4
11 -8 0 -1.8 6.8
11 -8 0 -1.7 3.8
11 -9 0 -3.5 6.2
11 9 0 3.9 13.9
11 -9 0 2.5 7
11 -9 0 -2.3 3
11 -10 0 -7.6 6.7
11 10 0 -1.7 15.3
11 -11 0 -3.9 8.8
12 0 0 0.8 6.2
-12 0 0 14.7 10.9
-12 1 0 780.62 59.39
12 -1 0 639.84 55.49
12 -1 0 676.53 49.5
12 1 0 653.23 55.49
-12 2 0 108.29 22.4
12 -2 0 126.19 24.1
12 2 0 136.79 36.2
12 -3 0 -7.7 3.7
12 -3 0 -2.4 5.8
-12 3 0 4.1 8.5
12 3 0 -3.5 6
12 -4 0 175.28 28.8
12 -4 0 162.48 27.5
12 4 0 225.88 38.8
-12 4 0 203.78 36.1
12 -5 0 59.19 19.2
12 -5 0 38.5 14.1
12 5 0 14.7 13.1
12 -6 0 39.3 14.6
12 6 0 63.09 24.4
12 -6 0 49.1 17.1
12 -7 0 187.78 27.6
12 -7 0 180.38 28.5
12 -7 0 156.78 29
12 7 0 217.38 39.7
12 -8 0 37.1 14.1
12 8 0 38 20.6
12 -8 0 50.89 18.5
12 -9 0 84.59 15.3
12 -9 0 96.99 24.1
12 -10 0 41.4 18.3
13 0 0 3.5 9.1
13 -1 0 6.5 10.1
13 -1 0 -3 5.9
13 1 0 -2.5 7.2
13 -2 0 6.3 8.8
13 2 0 -4.3 7.7
13 -2 0 0.1 6.5
13 3 0 -1.8 7.8
13 -3 0 -3.1 7.2
13 -3 0 2.5 8.4
13 -4 0 -1.9 5.7
13 -5 0 2.5 8.2
13 -5 0 16 11.9
13 5 0 -1.8 10.8
13 6 0 7 13.6
13 -6 0 -7.9 5.4
13 7 0 -3.9 13
13 -7 0 -3.2 5.3
13 -7 0 -0.6 7.5
13 -8 0 0.6 5.1
13 -8 0 -5 8.7
13 -9 0 5.1 6.6
13 -9 0 10.7 12.2
13 -10 0 2.1 11.2
14 0 0 242.68 34.3
14 0 0 190.38 34.4
14 -1 0 2.1 9.3
14 -1 0 11.3 10.3
14 1 0 -0.7 9.6
14 -2 0 256.27 36.9
14 2 0 267.87 45.2
14 -2 0 297.77 47.2
14 3 0 8.7 12.8
14 -3 0 18.8 15.6
14 -3 0 10.4 9.9
14 4 0 -3.4 11.9
14 -4 0 14.6 13.7
14 -4 0 -0.6 6.9
14 -5 0 98.09 24.4
14 5 0 61.99 24.1
14 -6 0 30.7 16
14 -7 0 9.8 10.6
14 -7 0 9.7 8.5
14 -8 0 182.38 27.9
14 -8 0 170.18 33
15 0 0 -4.5 11.8
15 0 0 -4.2 5.2
15 -1 0 -1 7.4
15 -1 0 -4.5 11.2
15 1 0 0.3 12.8
15 -2 0 -0.8 7.9
15 -2 0 -3 13.9
15 -3 0 -2 11.5
15 3 0 -2.5 17.2
15 -4 0 -2.4 6.9
15 -4 0 -3.9 12.3
15 -5 0 -8 6.3
15 -6 0 -5.4 7.1
15 -7 0 -3.3 5.9
15 -7 0 -2.7 8.4
16 0 0 100.79 24
16 -1 0 10.7 21.6
16 1 0 19.5 13.8
16 -1 0 29.6 17.1
16 -2 0 149.39 31.3
16 -2 0 122.19 34.8
16 -3 0 11.2 11.7
16 -3 0 7 19.9
16 -4 0 -3.5 7.5
16 -5 0 -2.3 7.2
17 0 0 -4.3 7.9
17 -1 0 -5.1 7.5
17 1 0 -1.3 10.4
17 2 0 -2.6 8.3
17 -2 0 2.5 11.5
0 1 1 0.8 1.1
0 -1 1 0.4 1.1
0 1 -1 0.6 1
0 -1 -1 0.2 0.9
0 -2 1 1.1 1.9
0 2 1 0.7 2.2
0 2 -1 1.4 2.1
0 2 1 0.9 1.7
0 -2 -1 0.7 1.3
0 3 -1 1.3 2.4
0 3 1 -2.5 2.4
0 3 1 -0.1 1.6
0 4 -1 82.09 10.9
0 4 1 89.19 7.1
0 4 1 92.39 12.4
0 5 -1 -0.8 2.5
0 5 1 -1.2 1.5
0 5 1 2.6 3.5
0 6 -1 119.69 15.8
0 6 1 142.39 10.3
0 6 1 140.19 18.5
0 7 1 0.5 2.1
0 7 -1 -3.5 2.2
0 7 1 0.4 4.9
0 8 1 1.9 4.7
0 8 -1 2.7 4.9
0 8 1 3.1 2.7
0 9 1 -5.2 3.5
0 9 1 1.3 2.8
0 9 -1 1.3 5
0 10 1 4.9 7.9
0 10 1 6.8 4.1
0 10 -1 7.6 8.1
0 11 1 6.1 7.5
0 11 1 -1.8 2.8
0 11 -1 -0.2 6.2
0 12 1 46.7 9.6
0 12 -1 38.4 15.2
0 12 1 65.89 31
0 13 -1 -1.5 9.2
0 13 1 1.5 10.7
0 14 1 44.8 22.1
0 14 -1 23.9 18.2
1 0 1 -0.9 0.8
-1 0 -1 -1.3 1.2
1 -1 -1 6.1 2.3
-1 1 -1 6.9 2.2
1 1 1 5.9 2.5
1 -1 -1 6.1 2.1
-1 1 -1 5.8 1.9
1 -1 1 4.8 2.2
-1 1 1 10.1 2.9
1 -1 1 12.8 2.7
-1 -1 -1 8.8 2.8
1 -2 -1 344.27 17.2
-1 2 -1 377.56 19
1 -2 -1 348.77 17.5
1 2 1 348.67 17.9
-1 2 -1 382.76 17.2
-1 2 1 336.17 19.3
-1 2 1 347.47 17.6
-1 -2 -1 336.07 17.2
1 -3 -1 962.1 39.3
1 3 1 949.71 41.3
1 -3 -1 928.21 44.9
-1 3 -1 883.01 43.5
1 -3 1 920.71 43.9
-1 -3 -1 994 39.3
-1 3 1 924.51 41
-1 3 1 984.2 45.1
-1 4 -1 12.9 5
1 4 1 13.3 3.4
1 -4 -1 7.4 4.6
1 -4 1 13.7 5.2
-1 4 1 11 3.2
-1 4 1 12.2 5.3
1 5 1 72.59 12.1
-1 5 -1 65.99 11.3
1 5 1 74.79 7.2
1 -5 1 79.39 12.7
-1 5 1 74.19 7.2
1 5 -1 60.59 10.3
-1 5 1 62.79 11.2
-1 6 -1 57.89 11.4
1 6 1 59.49 11.5
1 6 1 60.39 8.2
-1 6 1 65.59 12.7
-1 6 1 69.39 8.5
1 6 -1 63.29 11.5
1 7 1 123.69 10.4
1 7 1 108.09 17.1
-1 7 -1 110.99 17.1
1 7 -1 110.99 16.5
-1 7 1 110.89 9.9
-1 7 1 91.79 15.6
1 8 1 107.09 18.3
1 8 1 114.49 14.1
-1 8 -1 112.79 18
-1 8 1 95.79 17.5
1 8 -1 105.39 17.2
1 9 1 233.78 29.2
-1 9 -1 158.98 24.5
1 9 1 187.38 15
1 9 -1 300.67 32.9
-1 9 1 212.68 28.3
-1 9 1 168.78 14.3
1 10 1 118.19 14.8
-1 10 -1 91.49 21.8
1 10 1 116.89 22.4
-1 10 1 95.19 20.5
-1 10 1 126.79 14.8
1 10 -1 87.99 18
-1 11 -1 170.08 26.9
1 11 1 180.68 15.7
1 11 1 168.88 28.1
-1 11 1 150.58 26.7
1 11 -1 157.88 26.6
1 12 1 -7.2 10.5
-1 12 -1 6.2 9.1
1 12 1 0.4 4
1 12 -1 3.4 8.3
1 13 1 47.6 19.3
-1 13 -1 34.7 16.2
1 13 1 49.5 13.5
-1 13 1 85.49 24
1 13 -1 25.7 15.1
1 14 1 5.8 15.1
-1 14 -1 5.4 13.9
-1 14 1 3.4 13
1 14 -1 6.9 13.9
1 15 -1 -3.1 24.1
2 0 1 -2.2 1.9
-2 0 -1 -3.1 1.4
2 0 -1 -1.4 1.9
-2 1 -1 55.49 7.9
2 -1 -1 42.2 6.1
2 -1 -1 40.8 6.3
2 1 1 53.69 7.6
-2 1 1 42 6.8
-2 -1 -1 44.4 6.8
2 1 -1 46 6.6
2 -1 1 43 6.2
-2 1 1 51.29 6.4
2 2 1 227.18 14.7
2 -2 -1 221.28 14.2
2 -2 -1 223.88 13.7
2 -2 -1 209.78 14.7
-2 2 -1 216.78 13.8
-2 2 -1 217.48 14.5
-2 2 1 228.18 15.1
2 -2 1 200.88 14.2
2 -2 1 225.18 13.1
-2 -2 -1 210.28 14
-2 2 1 210.88 14.4
-2 3 -1 185.98 13.8
2 3 1 146.89 12
2 -3 -1 187.68 11.7
2 -3 -1 167.08 14
-2 3 -1 157.98 11.2
2 -3 -1 164.38 11.5
2 3 -1 170.18 11.4
-2 -3 -1 166.68 11.4
-2 3 1 154.78 13.5
2 -3 1 166.48 13.6
-2 4 -1 108.19 8.9
2 4 1 115.49 10.1
2 -4 -1 122.99 8.2
-2 4 -1 100.19 12.8
2 -4 -1 138.89 15.5
2 4 -1 116.09 9
-2 4 1 114.19 14.3
2 -4 1 96.29 12.8
-2 5 -1 84.69 12.6
-2 5 -1 79.79 7.6
2 5 1 93.09 10.8
2 -5 -1 66.79 12.1
-2 5 1 88.59 8.5
2 -5 1 80.89 13.2
-2 5 1 86.99 13.2
2 5 -1 78.99 7.3
2 6 1 552.54 29.1
-2 6 -1 505.95 33.7
2 -6 -1 581.34 36.6
-2 6 -1 542.65 27.1
2 -6 1 531.55 34.5
2 6 -1 534.65 26.6
-2 6 1 505.85 34.7
-2 6 1 528.05 28.4
2 7 1 1180.68 57.29
-2 7 -1 1202.48 65.09
-2 7 -1 1406.16 67.79
2 7 1 1251.47 66.39
-2 7 1 1218.68 65.99
2 -7 1 1184.18 65.59
2 7 -1 1294.37 55.19
-2 7 1 1287.77 57.49
2 7 -1 1178.28 64.19
2 8 1 121.79 19.6
-2 8 -1 85.99 16.1
2 8 1 92.19 12.3
2 8 -1 100.89 16.9
-2 8 1 104.49 18.2
2 8 -1 112.09 9.7
2 9 1 32 11.6
2 9 1 55.79 10.1
-2 9 -1 73.19 15.2
-2 9 1 49.3 12.8
2 9 -1 33.4 11.3
2 9 -1 69.29 11.8
-2 10 -1 13.6 9
2 10 1 12.2 5.9
2 10 1 2.1 7.1
2 10 -1 1.4 6.1
-2 10 1 -1.4 5
2 10 -1 3.2 3.4
2 11 1 12.6 10.8
2 11 1 7.8 5.8
-2 11 -1 11.9 10.6
-2 11 1 -0.5 7.7
2 11 -1 15.3 5.5
2 11 -1 9.7 8.8
2 12 1 15.4 7.3
-2 12 -1 2.6 8.4
2 12 -1 4 8.5
-2 12 1 -3.6 6.4
-2 13 -1 -6.7 8.1
2 13 1 -3.2 9.7
2 13 1 -1.6 4.9
-2 13 1 0.4 10.1
2 13 -1 0.5 11.1
2 14 1 11.7 16.3
-2 14 -1 28.2 19
2 14 -1 47.4 22
-2 14 1 6.6 15.4
-3 0 1 1.8 3
3 0 -1 -1.4 2.5
3 0 1 1.4 2.5
-3 0 -1 -0.3 2.7
3 1 1 7.3 3.4
3 -1 -1 1.7 2.6
3 -1 -1 0.5 2.9
-3 1 -1 0.9 2.4
3 -1 1 5.6 4.3
-3 -1 -1 -0.1 2.9
3 1 -1 -0.6 2.5
-3 1 1 2.6 3.5
3 -2 -1 3.7 3.2
-3 2 -1 0.9 2.7
3 -2 -1 1.8 2.8
3 2 1 1.8 2.8
3 2 -1 2.6 3
-3 -2 -1 1 2.6
-3 2 1 1.2 2.9
-3 2 1 1.5 2.9
3 -2 1 0.5 2.7
3 -2 1 1.4 2.9
3 -3 -1 0 1.9
-3 3 -1 -1.3 3
-3 3 -1 2 2.9
3 3 1 0.5 2.6
3 -3 -1 0.7 3.3
3 -3 -1 2.9 2.8
-3 -3 -1 1.6 2.7
-3 3 1 0.9 2.6
3 -3 1 2.5 2.6
-3 3 1 1.1 3.5
3 -3 1 0.1 2.7
3 3 -1 1.7 2.6
3 -4 -1 955 43.8
3 -4 -1 948.01 49.3
-3 4 -1 942.81 48.2
3 -4 -1 1007.8 44.6
-3 4 -1 950.4 45.9
3 4 1 998 47.2
3 -4 1 866.61 41.2
-3 4 1 911.01 46.7
3 -4 1 993.2 41.6
3 4 -1 977.7 45.7
-3 4 1 944.61 49
3 -4 1 919.51 48.5
-3 -4 -1 956.8 44.1
-3 5 -1 9.3 5.2
3 -5 -1 4.7 2.5
3 -5 -1 -3.4 2.2
3 5 1 3 3.4
-3 5 -1 0.2 2.4
3 5 -1 -0.7 1.9
3 -5 1 0 3.7
-3 5 1 -1.4 2.8
3 6 1 617.44 33.8
-3 6 -1 582.54 37.3
-3 6 -1 585.64 32.3
3 -6 -1 577.24 38.2
3 6 -1 661.33 32.7
-3 6 1 576.14 37.5
3 -6 1 532.55 36.7
3 -7 -1 45.8 11.1
-3 7 -1 19.8 7.9
3 7 1 19.5 6.1
-3 7 -1 31.7 7.1
-3 7 1 53.09 12.3
3 -7 1 28.6 9.2
3 7 -1 28.6 6.9
3 8 1 2 3.6
-3 8 -1 4 3.8
-3 8 -1 8.7 6.7
3 -8 -1 4.8 6.4
3 8 -1 -0.5 3.5
-3 8 1 0.8 4.6
3 8 -1 -1.8 1.9
3 -8 1 1.2 4.7
3 9 1 54.39 10.6
-3 9 -1 41.4 12.7
3 9 1 42.5 13.2
3 9 -1 60.59 10.3
3 9 -1 51.29 13.8
-3 9 1 55.09 14.5
3 10 1 130.49 23.5
-3 10 -1 99.49 20.3
3 10 1 128.69 17.4
3 10 -1 125.79 15.7
-3 10 1 112.59 22
3 11 1 20.3 7.2
3 11 1 15.9 11.2
-3 11 -1 17.7 10.3
3 11 -1 20.7 11.4
3 11 -1 22.3 7.2
-3 11 1 -3 5.4
-3 12 -1 184.68 33.6
3 12 1 185.28 31.8
3 12 1 223.88 21.1
3 12 -1 253.37 35.3
-3 12 1 240.38 35.6
3 12 -1 241.28 19.2
3 13 1 15.7 9
-3 13 -1 12.8 13.5
3 13 1 -3.7 10.3
-3 13 1 15.4 16.5
3 13 -1 23.3 15.2
-3 14 -1 17.6 17.9
3 14 1 13.8 17.2
3 14 -1 -1.2 13.1
-3 14 1 15.7 20.1
4 0 1 -0.2 3.2
4 0 -1 -1 1.9
-4 0 -1 -1.3 2.8
-4 0 1 -2.7 1.8
-4 -1 1 2036.8 92.29
-4 1 -1 2037.6 93.09
4 -1 -1 2156.58 90.29
4 1 1 2158.78 93.29
4 -1 -1 2166.38 93.49
-4 -1 -1 1993.4 92.69
-4 1 1 2152.28 93.99
4 -1 1 2073.89 92.39
4 1 -1 2129.59 93.39
4 -2 -1 616.24 33.1
-4 2 -1 645.24 35
4 -2 -1 575.44 33.5
4 2 1 609.64 34.3
-4 -2 -1 606.74 34.1
4 -2 1 586.14 32.7
4 2 -1 632.24 34.5
-4 2 1 527.95 33.6
4 -2 1 527.25 31.9
4 -3 -1 606.94 33.8
-4 3 -1 573.84 34
4 3 1 621.84 34.7
4 -3 -1 586.94 34.2
-4 3 1 568.54 33.6
-4 -3 -1 586.94 33.3
4 -3 1 614.54 32.7
4 -3 1 581.64 33.9
4 3 -1 574.94 33.8
4 -4 -1 36.6 8.1
-4 4 -1 22.5 6.9
4 -4 -1 13.9 6.1
-4 4 -1 42.2 9.2
4 4 1 42.2 8.9
4 -4 -1 34.2 7
4 -4 1 32.5 6.5
-4 4 1 22 6.8
-4 4 1 33.3 8.3
-4 -4 -1 30.1 7.2
4 -4 1 23.6 7.2
4 4 -1 33.5 7.2
4 -5 -1 7.3 3.6
-4 5 -1 4.6 4.5
4 -5 -1 4 4.8
4 5 1 4.7 3.9
-4 5 -1 2.8 3.6
4 -5 -1 1.9 2.8
4 -5 1 1.9 1.7
4 5 -1 0.5 2.3
-4 5 1 5.7 5.7
-4 5 1 2.3 3.2
4 -5 1 1.3 4.1
4 -5 1 2.3 2.3
4 -6 -1 325.97 17.7
4 -6 -1 326.77 27.1
-4 6 -1 325.07 26
4 6 1 320.77 23.5
-4 6 -1 314.57 23.1
-4 6 1 279.97 25.2
4 6 -1 323.07 22.8
4 -6 1 348.27 27.2
-4 7 -1 758.32 42.6
4 -7 -1 839.72 50.39
4 7 1 807.12 44.3
-4 7 -1 681.53 46
4 -7 1 787.52 48.8
4 7 -1 787.52 42.5
-4 7 1 779.22 48.8
-4 8 -1 64.29 14.5
4 -8 -1 58.79 14.4
4 8 1 57.79 11.6
-4 8 -1 51.99 10.7
4 -8 1 84.99 17
-4 8 1 70.59 15.4
4 8 -1 62.49 11.1
-4 9 -1 3.2 5.8
4 9 1 1.2 4.4
4 -9 -1 0.8 6.2
4 9 -1 3.6 4.3
4 -9 1 4.6 7.6
-4 9 1 -3.6 5
4 9 -1 1.7 3.8
4 10 1 109.69 17.3
4 10 1 85.19 20.1
-4 10 -1 126.09 23.8
4 10 -1 111.69 21.9
-4 10 1 139.09 25.4
4 10 -1 164.28 19.5
4 11 1 44.7 16.7
-4 11 -1 42.2 14.8
4 11 1 47.1 12
4 11 -1 46.8 15.7
4 11 -1 43.2 10.3
-4 11 1 34.8 13.4
4 12 1 2.3 6
4 12 1 4.8 9.6
-4 12 -1 0.5 10
-4 12 1 -3.5 8
4 12 -1 1.4 5.1
4 12 -1 0.6 8.7
4 13 1 1.2 7
-4 13 -1 0.6 13.3
4 13 1 -3 11.2
-4 13 1 -1 11.4
4 13 -1 -4.6 9.9
4 13 -1 -0.6 5.6
4 14 1 -1.1 15.8
-4 14 -1 11.6 19.3
4 14 -1 -1.5 14.1
-4 14 1 20.5 21.6
-5 0 -1 -1.7 2.5
-5 0 1 -1.3 2.2
5 0 1 -2.7 2.6
5 0 -1 1.1 3.5
5 -1 -1 813.72 44
5 1 1 738.63 42.7
5 -1 -1 750.82 39.7
-5 1 -1 780.02 43.9
-5 -1 1 755.42 42.8
-5 1 1 789.82 44.2
5 -1 1 738.03 42.3
5 1 -1 704.23 42.3
-5 2 -1 477.05 31
5 -2 -1 462.45 30.2
5 -2 -1 429.66 27.8
5 2 1 434.46 29.7
-5 2 1 373.16 29
5 -2 1 455.75 29.4
5 2 -1 499.75 31.1
-5 -2 -1 470.85 30.4
5 -2 1 422.16 27.8
5 -3 -1 941.01 50.29
-5 3 -1 935.71 50.99
5 -3 -1 950.3 50.09
5 3 1 994.8 51.59
-5 -3 -1 931.61 49.9
5 -3 1 882.01 49
-5 3 1 923.91 51.49
5 3 -1 1005 57.79
5 -3 1 925.11 48.7
5 -4 -1 23.2 7.3
-5 4 -1 16.3 5.8
5 4 1 10.9 5.7
5 -4 -1 18 7.1
-5 4 1 5.4 4.5
-5 4 1 6.5 5.8
5 4 -1 11 5.6
5 -4 1 10.3 4.9
-5 -4 -1 14.6 5.5
5 -4 1 17.2 6.3
5 5 1 32.8 8.4
5 -5 -1 39.3 10.3
-5 5 -1 21.4 7.3
5 -5 -1 24.9 6.7
5 -5 -1 33.7 7.6
-5 5 -1 22.9 7.7
-5 5 1 44.5 11.2
-5 5 1 22.8 7.9
5 -5 1 29.4 6.7
5 -5 1 23.3 8.6
5 5 -1 34.4 8.3
-5 6 -1 270.57 28.4
5 -6 -1 210.78 16.2
5 6 1 204.18 20.1
5 -6 -1 247.78 16.9
5 -6 -1 236.28 27.5
-5 6 -1 216.58 20.1
5 6 -1 265.37 21.7
5 -6 1 231.28 14.5
5 -6 1 189.68 24.7
-5 6 1 260.57 23.6
5 -7 -1 288.27 32.1
-5 7 -1 253.67 22.4
-5 7 -1 238.08 28.5
5 7 1 266.27 23.4
5 7 -1 272.17 22.7
5 -7 1 259.47 30.3
-5 7 1 318.67 27.6
5 8 1 33.5 10
-5 8 -1 24.6 8.6
5 -8 -1 17.1 9.1
-5 8 -1 18.7 8.6
5 -8 1 20.8 8.8
-5 8 1 21.6 11
5 8 -1 37.8 10.4
5 -9 -1 72.49 17.2
5 9 1 87.99 16.2
-5 9 -1 56.29 15.1
5 9 -1 56.49 12.4
5 -9 1 69.29 17.3
-5 9 1 79.59 18.2
5 -10 -1 220.98 31.9
5 10 1 165.08 23.4
-5 10 -1 195.78 29.9
5 10 -1 185.48 23.4
5 -10 1 192.48 30.2
-5 10 1 210.88 31.6
5 10 -1 155.08 26.9
5 11 1 391.66 32
5 11 1 370.76 44.8
-5 11 -1 386.36 44.2
5 11 -1 452.85 40
5 11 -1 412.86 31.1
5 12 1 74.39 16.3
-5 12 -1 48.7 17.2
5 12 1 58.89 20
-5 12 1 80.69 23.9
5 12 -1 100.39 18.2
5 12 -1 59.09 19.3
5 13 1 6.3 10.7
5 13 1 9.8 15.6
-5 13 -1 7.9 14.7
-5 13 1 6.4 13.2
5 13 -1 3.7 7.8
5 13 -1 -4.2 10.4
5 14 1 -0.8 28.2
-5 14 -1 -4.5 17.4
5 14 -1 -2.3 15.5
-6 0 -1 -1 3.2
-6 0 1 0.9 3
6 0 -1 0.5 3.2
-6 1 -1 478.15 33.5
6 -1 -1 429.16 31.8
-6 -1 1 467.15 32.6
6 1 1 485.25 32.9
-6 1 1 472.55 33.5
6 1 -1 450.15 32.3
6 -1 1 446.06 31.6
6 -2 -1 90.19 16.1
6 2 1 58.89 11.7
6 -2 -1 74.89 13.1
-6 2 -1 63.09 13
6 2 -1 68.59 13.6
-6 -2 -1 95.89 16.3
6 -2 1 60.89 11.6
6 -2 1 68.19 13.9
-6 2 1 51.99 11.4
6 -3 -1 422.96 30.3
-6 3 -1 445.16 32.2
6 -3 -1 410.06 29.5
6 3 1 427.06 31.1
-6 -3 -1 455.35 31.3
6 3 -1 419.46 30.9
6 -3 1 420.86 29.3
6 -3 1 435.46 30.2
-6 3 1 383.76 30.8
-6 4 -1 2 3.9
6 -4 -1 -0.3 2.3
6 -4 -1 -1.4 3.5
6 4 1 -0.2 3.6
6 4 -1 -2.7 2.5
-6 4 1 10 6.6
-6 -4 -1 0.4 3.5
6 -4 1 3.8 3
6 -4 1 0.9 4
-6 5 -1 365.06 29.1
6 5 1 350.66 28.6
6 -5 -1 343.67 25.8
6 -5 -1 408.16 30.7
-6 5 1 342.67 28.4
6 5 -1 375.56 29.1
6 -5 1 346.97 24.7
6 -5 1 360.76 29.2
-6 5 1 415.66 31
-6 6 -1 14.7 7.3
-6 6 -1 12.1 7.8
6 -6 -1 22.6 8.8
6 -6 -1 28 7.4
6 6 1 24.2 8.2
6 -6 -1 24.9 6.8
6 -6 1 22.3 6.2
6 6 -1 33.3 10.4
-6 6 1 30.1 9.7
6 -6 1 29.5 9.5
6 -6 1 22.1 6.2
6 7 1 74.59 14.7
6 -7 -1 90.09 11.4
-6 7 -1 111.99 19
6 -7 -1 102.09 12.3
-6 7 -1 87.39 15.7
-6 7 1 81.79 17.3
6 7 -1 64.19 14
6 -7 1 75.59 15.5
-6 8 -1 31.1 10.5
6 8 1 59.89 14.3
-6 8 -1 81.09 18.2
6 -8 -1 71.09 16.2
6 8 -1 56.29 13.8
6 -8 1 56.89 14.9
-6 8 1 41.4 15.4
-6 9 -1 2.5 6.8
6 9 1 19.4 9.4
6 -9 -1 20.2 10.9
-6 9 1 15.4 9.7
6 -9 1 3.8 8.5
6 -10 -1 5 8.5
6 10 1 9.5 7.4
-6 10 -1 6.2 9.2
6 10 -1 6.7 7.1
6 -10 1 17.3 10.9
-6 10 1 21.5 13
-6 11 -1 7.8 10.6
6 -11 -1 13.4 12.3
6 11 1 6 7.9
6 11 -1 20.1 13.3
-6 11 1 18 13.3
6 -11 1 4.7 9.2
6 11 -1 19.4 9.8
-6 12 -1 4.5 11.6
6 12 1 14.2 12.5
6 12 1 8 12.2
-6 12 1 10.6 13.4
6 12 -1 2.6 7.4
6 12 -1 -5.4 8.8
6 13 1 -1.6 14.2
6 13 1 -3.2 9.5
-6 13 -1 9.9 15.8
-6 13 1 3 15.3
7 0 1 1.5 3.7
-7 0 1 -1.7 4.2
7 0 -1 -2.3 2.4
-7 1 -1 56.69 13.4
7 -1 -1 70.69 13.9
7 1 1 57.09 11.8
-7 -1 1 35.6 9.4
-7 -1 -1 71.79 15.2
7 -1 1 60.59 12.8
7 1 -1 73.49 14.3
-7 1 1 104.59 22.5
7 -2 -1 -0.7 3.7
7 -2 -1 2.4 4.4
7 2 1 1.2 4.1
-7 2 -1 1 3.6
7 2 -1 8.9 6
7 -2 1 3.2 4.3
-7 2 1 2 3.3
-7 -2 -1 -0.2 3.3
7 -2 1 2.1 3.9
-7 3 -1 7.5 6.5
7 -3 -1 1.3 5.1
7 3 1 -2.6 2.2
7 -3 -1 -1.9 2.9
-7 3 1 -1.2 2.3
-7 -3 -1 2.4 4.5
7 -3 1 22.5 7.8
7 -3 1 -0.3 4
7 3 -1 5.8 5.3
7 -4 -1 -3.9 2.5
7 4 1 2 4.1
7 -4 -1 -1.5 2.3
-7 4 -1 5.1 6
-7 -4 -1 -4.7 1.8
-7 4 1 2.4 4.3
7 -4 1 -2.6 3.9
7 -4 1 -2.5 2
7 4 -1 -3.5 3.6
7 -5 -1 49 12.8
7 5 1 47.5 13.8
7 -5 -1 44.6 11.3
-7 5 -1 54.69 14.2
-7 5 1 50.29 13.5
7 5 -1 50.59 13.4
7 -5 1 36.6 11
7 -5 1 28.1 8.1
7 -6 -1 328.67 30.3
7 -6 -1 378.36 26.3
-7 6 -1 325.87 29.7
7 6 1 370.56 31.1
7 -6 -1 360.26 26.7
7 -6 1 318.57 35.1
7 6 -1 317.37 29
7 -6 1 336.27 24.8
-7 7 -1 25.6 9.6
7 -7 -1 4.2 4.6
7 -7 -1 32.5 8
7 -7 -1 21.6 10.3
7 -7 1 26.2 7.4
7 7 -1 18.5 7.4
7 -7 1 23.6 6.4
7 -7 1 14.4 8.8
-7 8 -1 14.9 9.7
7 -8 -1 8.1 3.9
-7 8 -1 9.7 7.8
7 8 1 -0.3 4.7
7 -8 -1 8.6 4.3
-7 8 1 10 8
7 8 -1 2.5 5.9
7 -8 1 8.2 7.7
7 9 1 66.49 16.3
7 -9 -1 91.09 21.1
-7 9 -1 66.79 17.5
7 9 -1 88.69 18.7
7 -9 1 68.89 17.3
-7 9 1 89.89 21
7 -10 -1 4.7 9.3
-7 10 -1 5.8 8.9
7 10 1 1.4 6.2
7 -10 1 3.9 7.9
7 10 -1 3.1 6.8
7 -11 -1 7.9 10.6
-7 11 -1 -3.7 7.4
7 11 1 4.9 8.4
7 11 -1 -0.1 8.5
-7 11 1 6.5 11.4
7 -11 1 -3.6 6.1
-7 12 -1 1.6 12.2
7 12 1 36.1 18.6
7 12 1 23.1 14
-7 12 1 9.1 14.7
7 12 -1 1.6 8.6
7 -12 1 19 14.2
7 12 -1 30.1 17.6
7 13 1 66.29 26.6
7 13 -1 65.59 24.8
-7 13 1 65.39 27.3
-8 0 1 -2 2.8
8 0 1 -0.7 2.7
-8 0 -1 -1.8 3
8 0 -1 -1.9 3.3
-8 1 -1 216.08 28
-8 -1 1 211.48 27.4
8 -1 -1 270.57 26
8 1 1 272.07 33.5
-8 -1 -1 213.38 30.3
8 -1 1 171.28 22.8
8 1 -1 210.18 28.8
8 -2 -1 128.19 19.5
-8 2 -1 140.09 20
8 2 1 109.69 18.3
8 -2 -1 111.79 18.2
-8 -2 -1 151.18 23.3
8 -2 1 145.89 22
-8 2 1 142.89 24.9
8 -2 1 198.68 23.6
8 2 -1 179.78 27.1
8 -3 -1 23.4 9.6
-8 3 -1 14.8 7.8
8 -3 -1 2.4 5.8
8 3 1 0.3 3.3
-8 -3 -1 14.5 8.1
8 -3 1 9.6 6.7
8 3 -1 22.6 11
-8 3 1 3.1 4.9
8 -3 1 14.5 7.2
8 4 1 37.3 10.9
8 -4 -1 26.9 9.7
-8 4 -1 17.2 7.7
-8 -4 -1 21.2 9
8 -4 1 27.6 9.8
-8 4 1 18.8 8
8 4 -1 25.1 10.7
8 -5 -1 450.65 34.9
8 -5 -1 367.76 31
8 5 1 486.85 63.19
-8 5 -1 410.96 35.3
8 5 -1 366.76 33.7
-8 5 1 397.56 34.9
8 -5 1 391.66 30.6
8 -5 1 403.86 33.7
8 -6 -1 26.6 9
8 6 1 10.2 8.6
8 -6 -1 33.1 9.6
8 -6 -1 37.8 12.5
-8 6 -1 34.6 11.8
8 -6 1 41.8 11.3
8 -6 1 54.39 14.4
8 6 -1 52.59 15.2
8 -7 -1 2.7 4.5
-8 7 -1 10.6 7.5
8 -7 -1 4.5 5.4
8 7 1 8.6 8.1
8 -7 -1 -2.7 4.1
8 -7 1 -2.1 4.4
8 7 -1 12.3 8.9
8 -7 1 3.1 4.2
8 -7 1 11.8 5.3
-8 8 -1 63.99 16.6
8 -8 -1 91.69 19.7
8 -8 -1 117.69 14.8
8 -8 -1 92.19 13.2
8 8 1 78.89 18
8 -8 1 75.69 18.3
8 8 -1 72.19 17.5
8 -8 1 98.89 12.1
8 -9 -1 -6 4.9
8 9 1 -1.9 6.1
-8 9 1 -3.5 5.8
8 9 -1 -4.7 5.3
8 -9 1 2.3 6.5
8 10 1 13.7 10.5
8 -10 -1 7.1 11.3
8 -10 1 4.3 9.1
-8 10 1 5 10.5
8 10 -1 9.6 10.9
8 -11 -1 5.9 10.3
8 11 1 -2.1 8
8 11 -1 2.8 9.2
-8 11 1 17.2 17.2
8 -11 1 15.5 12.4
8 -12 -1 5.3 10.7
8 12 1 0.7 11.6
8 -12 1 3.6 10.2
8 12 -1 6.1 14.8
-8 12 1 4.7 15.1
8 12 -1 -0.3 12
8 13 1 1.8 18.2
8 13 -1 2.3 17.1
-9 0 1 -1 4.3
9 0 1 0.8 5.1
9 0 -1 -0.9 3.6
-9 0 -1 -3.5 3.2
9 -1 -1 172.08 23
9 -1 -1 218.28 31
9 1 1 200.98 27.7
-9 1 -1 285.87 35.9
-9 -1 -1 278.77 35.2
9 -1 1 244.68 31
-9 1 1 245.88 33.3
9 1 -1 184.08 26.1
9 -2 -1 1 5.8
9 2 1 -1.5 3.7
-9 2 -1 10.5 7.6
9 -2 -1 7.3 5.2
9 2 -1 19.8 9.9
-9 -2 -1 7 6.9
-9 2 1 8.9 7.3
9 -2 1 2.4 5.7
9 -2 1 2.3 4.8
9 -3 -1 8.5 7.2
-9 3 -1 6.9 6.3
9 -3 -1 7.6 7.5
-9 3 1 6.1 7.3
-9 -3 -1 2.8 5.5
9 -3 1 3.3 6.8
9 -3 1 9.1 6.9
-9 4 -1 207.78 30.2
9 -4 -1 246.98 33
9 4 1 209.38 31.3
9 -4 -1 238.88 30.9
9 4 -1 277.77 36.3
-9 4 1 233.48 33.6
9 -4 1 231.28 28.4
9 -4 1 201.28 27.1
-9 -4 -1 216.88 28.8
9 5 1 122.59 22.4
9 -5 -1 133.39 22.8
-9 5 -1 101.19 22
9 -5 -1 130.19 22.1
9 5 -1 136.89 25.1
9 -5 1 142.69 22.6
9 -5 1 153.18 24.3
9 -6 -1 10.4 8.2
9 6 1 7.9 8
9 -6 -1 9.1 8.3
-9 6 -1 17.4 9.9
9 -6 1 22.1 8.8
9 6 -1 28.9 11.8
9 -6 1 12.6 8.5
9 7 1 247.88 34.8
-9 7 -1 223.98 34.9
9 -7 -1 213.18 31.1
9 -7 -1 224.18 21.7
9 -7 -1 228.78 27
9 -7 1 182.28 27.6
9 7 -1 217.18 32.9
9 -7 1 232.18 21.5
9 -7 1 221.38 20.7
9 -8 -1 4.6 7.3
9 8 1 1.7 9.1
-9 8 -1 0.9 5.2
9 -8 -1 0.9 3.9
9 -8 -1 5.1 4.8
9 -8 1 0.9 3.1
9 -8 1 2.9 3.8
9 -8 1 -1.9 4.9
9 8 -1 6.2 8.7
9 -9 -1 78.49 20.6
9 9 1 77.19 20.9
9 -9 1 57.79 17.7
9 9 -1 71.59 19.1
9 -10 -1 163.88 32.3
9 10 1 134.69 27.1
9 -10 1 232.88 37.4
9 10 -1 162.98 29.7
9 11 1 35.5 16.4
9 -11 -1 64.39 25.3
9 11 -1 28.9 20.4
9 -12 -1 50.89 21.1
9 12 -1 8.5 15.4
9 -12 1 18.7 12.9
10 0 1 -4.3 4.1
10 0 -1 -1.9 3.3
-10 0 -1 3.9 5.6
10 -1 -1 37.8 13.5
10 1 1 34.6 11.5
-10 1 -1 80.89 19.8
10 -1 -1 43.4 11.8
-10 1 1 66.39 17.5
10 -1 1 52.89 14.6
-10 -1 -1 45.3 13.2
10 1 -1 60.29 14.9
10 -2 -1 194.78 25
-10 2 -1 159.08 25.7
10 -2 -1 106.09 22.6
10 2 1 167.48 28.7
10 2 -1 189.28 31.1
-10 2 1 127.59 23
10 -2 1 244.28 33.8
10 -2 1 126.79 21.6
-10 -2 -1 145.19 27.5
10 -3 -1 598.94 45.8
-10 3 -1 605.64 47.9
10 -3 -1 538.15 41.3
-10 3 1 571.04 46.9
10 -3 1 587.64 44.9
-10 -3 -1 504.85 43.5
10 -3 1 569.94 42.5
10 -4 -1 194.28 28.1
-10 4 -1 295.07 39.2
10 -4 -1 182.48 27
10 -4 1 174.88 25.3
-10 -4 -1 201.38 28.1
10 4 -1 83.19 20.9
10 -4 1 260.57 32.2
10 -5 -1 133.49 22.5
-10 5 -1 147.99 24.4
10 5 1 145.09 28.2
10 5 -1 120.89 23.9
10 -5 1 128.79 22.6
-10 6 -1 6.9 7.9
10 6 1 -3.3 4.9
10 -6 -1 1.3 5.5
10 -6 -1 3.7 6.3
10 -6 1 -4 4.4
10 -6 1 4.8 7
10 6 -1 -0.7 6
10 -7 -1 90.99 16.5
10 -7 -1 58.49 14.5
10 7 1 70.99 20.9
10 -7 -1 63.99 17.9
-10 7 -1 46.4 14.2
10 -7 1 94.49 16.4
10 7 -1 81.49 20.7
10 -7 1 99.79 17.9
10 -7 1 87.89 20.1
10 -8 -1 27.4 9.6
10 -8 -1 29.5 10
10 8 1 15.2 12.6
10 -8 -1 17.7 11.4
10 -8 1 19.9 11.8
10 8 -1 8.3 10.2
10 -8 1 18.5 7.3
10 -8 1 30.5 9.3
10 9 1 1.6 10
10 -9 -1 3.2 4.4
10 -9 -1 -0.8 7.5
10 9 -1 0.3 9
10 -9 1 -1.6 6
10 -10 -1 35.8 15.6
10 10 1 22.3 16
10 10 -1 31.5 17.1
10 -10 1 51.89 18
10 -11 -1 11.4 13.8
10 11 -1 -0.6 15.6
10 -11 1 6 11.2
10 -12 -1 19.2 12.8
10 -12 1 -6.4 8.1
11 0 1 -5.9 5.8
-11 0 -1 0.9 6.5
-11 1 -1 751.42 57.19
11 -1 -1 714.93 54.99
11 -1 -1 713.33 49.3
-11 -1 -1 716.63 55.79
11 -1 1 767.62 55.99
11 -2 -1 43.8 12.7
-11 2 -1 52.59 14.3
11 -2 -1 42.1 13.2
11 2 1 23.3 10.8
-11 -2 -1 43.3 12.9
11 -2 1 57.89 15.2
11 2 -1 3.1 8.1
-11 3 -1 5.8 8.6
11 -3 -1 2.5 6.5
11 3 1 -2.2 5
11 -3 1 5.6 12.8
11 -3 1 -1.3 6
-11 -3 -1 11.8 7.9
11 -4 -1 197.78 28.9
11 -4 -1 290.97 39.3
-11 4 -1 212.98 31.1
11 -4 1 251.27 32.9
11 -4 1 337.67 39.2
11 -5 -1 50.79 15.1
11 5 1 26.7 13.9
-11 5 -1 42.4 15.9
11 -5 -1 28.2 12.5
11 5 -1 16.6 10.8
11 -5 1 49.99 15.6
11 -5 1 47.2 14.3
11 6 1 27.8 16.4
11 -6 -1 34.8 13.6
11 -6 -1 53.59 16.4
-11 6 -1 17 11.7
11 -6 1 23.2 11
11 -6 1 57.39 15.6
11 6 -1 25 13.1
11 7 1 84.99 24.2
11 -7 -1 57.49 16.4
11 -7 -1 71.79 19
-11 7 -1 94.59 24.8
11 -7 -1 65.89 15.7
11 7 -1 79.19 22.5
11 -7 1 58.79 20.3
11 -7 1 65.89 17.4
11 -8 -1 -1.8 4.9
11 -8 -1 3.2 5.6
11 -8 -1 7.1 8.6
11 8 1 5.8 11.6
11 -8 1 5.5 5.6
11 -8 1 7.2 9.7
11 -8 1 3.3 5.7
11 9 1 3.8 12.4
11 -9 -1 0.1 7.7
11 -9 -1 1.6 4.2
11 -9 -1 4.3 5.4
11 9 -1 2.6 12.8
11 -9 1 5.8 9.6
11 -9 1 2.2 3.9
11 -10 -1 64.99 21.9
11 10 1 86.59 27.5
11 10 -1 82.39 32.3
11 -10 1 108.99 25.2
11 -11 -1 13.9 14.2
11 -11 1 5.7 12.1
12 0 1 2 7
12 0 -1 -0.6 6
-12 0 -1 3.4 6.3
12 -1 -1 15.3 9.4
-12 1 -1 -3 3.6
12 -1 -1 0.9 6.5
12 1 1 0.5 7.4
-12 -1 -1 12 9.5
12 1 -1 14 11.8
12 -1 1 4.3 8.1
12 -1 1 15.5 9
-12 2 -1 36.5 15.5
12 -2 -1 21.7 11.4
12 2 1 36 19.8
-12 -2 -1 18 11.5
12 -2 1 49.5 14.8
12 -3 -1 38.8 13.1
12 3 1 24 13.7
-12 3 -1 19.8 11.3
12 3 -1 18.8 13.1
12 -3 1 37 12.7
12 -3 1 14.8 10.1
-12 4 -1 2.4 8.2
12 -4 -1 5.6 8.2
12 -4 -1 0.5 5.4
12 4 1 -1.9 6.5
12 -4 1 1 7.4
12 4 -1 -2.5 5.7
12 -4 1 6.2 8
-12 5 -1 5.1 9.9
12 5 1 4.3 9.6
12 -5 -1 -0.8 5.5
12 -5 -1 3.4 8.7
12 -5 1 -0.3 5.9
12 -5 1 -5 4.7
12 5 -1 -1.1 8.2
12 -6 -1 337.47 44.2
12 -6 -1 317.97 39.3
-12 6 -1 412.66 54.19
12 -6 1 393.46 45.6
12 6 -1 329.47 59.79
12 -6 1 295.57 37.8
12 -7 -1 80.59 20
12 7 1 42.9 20
12 -7 -1 67.99 17.2
12 -7 -1 69.29 20.2
12 7 -1 70.69 23.5
12 -7 1 60.59 16.5
12 -7 1 55.19 18.5
12 8 1 24.9 18.8
12 -8 -1 16.6 12.1
12 -8 -1 7.2 7.8
12 -8 -1 37.8 17.1
12 8 -1 29.4 18.8
12 -8 1 12.8 7.9
12 -8 1 12.8 9
12 -8 1 -2.8 6.4
12 -9 -1 10.4 7.6
12 -9 -1 1.6 6.7
12 -9 -1 10.4 12.3
12 -9 1 8.1 11.1
12 -9 1 -0.3 4.6
12 -9 1 7.7 6.1
12 -10 -1 6.7 11.1
12 -10 1 0.6 9.3
13 0 1 1 7.9
13 0 -1 -3 5.2
13 0 -1 -2.2 6.2
-13 0 -1 -0.7 5.7
-13 1 -1 -1.3 7
13 1 1 -1 7.1
13 -1 -1 0.9 6.9
13 -1 1 10.6 9.7
13 1 -1 2 7.9
-13 -1 -1 10.1 8.9
13 -1 1 9.6 10.6
13 2 1 -1 8.5
13 -2 -1 11.6 9
13 -2 -1 34.6 18.3
-13 2 -1 2.3 6.7
13 -2 1 11.5 10.1
13 2 -1 5.4 8.9
13 -2 1 13 10.1
13 3 1 11.1 12.3
13 -3 -1 5.9 10.7
13 -3 -1 21.3 11.8
-13 3 -1 26.1 15.5
13 -3 1 3.1 8.4
13 3 -1 18.2 14.1
13 -3 1 40.4 14.2
-13 4 -1 42.4 15.6
13 -4 -1 69.69 18.5
13 -4 -1 42.1 17.2
13 -4 1 62.69 18.1
13 5 1 5.2 11.9
-13 5 -1 0.8 7.8
13 -5 -1 2.3 8.6
13 -5 1 1.5 7.9
13 -5 1 5.9 9.1
13 5 -1 9.3 13.1
13 -6 -1 21.2 13.2
13 6 1 8.1 14
13 -6 -1 5.6 9.4
13 6 -1 25.6 19.5
13 -6 1 23.5 13.5
13 -6 1 5.3 9.3
13 -7 -1 1.9 9.1
13 -7 -1 -0.3 5
13 7 1 -2.6 13.7
13 7 -1 -0.7 13.5
13 -7 1 -3.1 7
13 -8 -1 42.3 17.5
13 -8 -1 28.2 11.8
13 -8 1 40.7 16.3
13 -8 1 25.2 11
13 -9 -1 23.9 16.5
13 -9 -1 11.4 8.4
13 -9 1 28.1 21.2
13 -10 -1 4.3 11.6
13 -10 1 -2 9.8
14 0 1 -0.4 9.7
14 0 -1 -1 10.2
14 0 -1 -4.2 4.2
14 -1 -1 23.2 16.8
14 1 1 37.1 19.1
14 -1 -1 30.6 14.6
14 -1 1 15.6 14.4
14 -1 1 20 12.2
14 1 -1 -1.8 11.8
-14 2 -1 120.39 28.9
14 2 1 83.19 25.9
14 -2 -1 117.39 24.7
14 -2 -1 117.89 28.5
14 -2 1 76.79 24.1
14 2 -1 103.09 29
14 -2 1 101.89 23.9
14 -3 -1 -1 9.7
14 3 1 -0.5 11.6
14 -3 -1 -0.4 6.4
14 -3 1 -6 5
14 -3 1 -3.4 9.1
14 3 -1 2.4 11.7
14 -4 -1 -1.3 17.4
14 4 1 6.7 15.1
14 -4 -1 -1.1 6.1
14 -4 1 -2.7 8.7
14 -4 1 -3.2 5.9
14 4 -1 -1.8 11.8
14 -5 -1 17.2 14.4
14 -5 -1 15.7 12.6
14 5 1 34.7 22.6
14 5 -1 27.6 20.1
14 -5 1 63.49 19.3
14 -5 1 -0.8 9.5
14 -6 -1 66.39 19.7
14 -6 1 51.99 19.1
14 -7 -1 70.99 19.9
14 -7 -1 64.19 20.5
14 -7 1 78.79 24.6
14 -8 -1 2.3 7.5
14 -8 -1 2 10.4
14 -8 1 3.7 7.8
14 -8 1 -2.2 10.4
15 0 1 14.3 18.4
15 0 -1 -5.2 5.2
15 0 -1 -3.4 12
15 0 1 4.9 8.1
15 -1 -1 -1.6 11.8
15 1 1 7.8 16.9
15 -1 -1 3.2 8.9
15 -1 1 -1.7 7.9
15 1 -1 3.9 9.2
15 1 -1 11.8 16.6
15 -1 1 5.3 14.5
15 -2 -1 16.1 11.9
15 -2 1 -5.7 6.7
15 -2 1 -0.1 12.2
15 -3 -1 6.7 14.6
15 3 1 47.1 28.3
15 -3 1 14.1 16.7
15 -3 1 2.6 9.6
15 -4 -1 4.4 13.2
15 -4 -1 2.8 9.9
15 -4 1 2.3 9.5
15 -4 1 2.4 13
15 -5 -1 15.6 11.8
15 -5 1 -7.3 6.6
15 -6 -1 1.5 9.4
15 -6 1 2.5 9.3
15 -7 -1 -0.4 6.6
15 -7 -1 8.5 12.2
15 -7 1 -3.1 8.1
16 0 -1 -1 8.8
16 0 1 -8.3 6.5
16 0 1 -4.5 31.3
16 -1 -1 -6.7 6.4
16 1 1 5.3 10.3
16 -1 -1 -2.7 18.5
16 -1 1 0.1 18.8
16 -1 1 -0.4 7.7
16 1 -1 -3.4 6.8
16 -2 -1 -1.1 18.3
16 -2 -1 18.9 13.7
16 -2 1 -2.1 17.5
16 -2 1 2.6 9.3
16 -3 -1 12.3 20.7
16 -3 -1 6.7 12
16 -3 1 0.5 26.9
16 -3 1 7.8 11
16 -4 -1 3.8 9.7
16 -4 1 4 11
16 -5 -1 59.39 22.4
16 -5 1 67.29 22.3
17 0 -1 1.5 9.8
17 0 1 -4.8 9
17 -1 -1 3.1 10.7
17 1 1 5.9 11.8
17 1 -1 5.7 11.2
17 -1 1 3.4 11.5
17 -2 -1 57.49 20.1
17 -2 1 120.79 28.9
17 2 -1 71.79 22.9
0 0 -2 13.7 2.9
0 0 2 23.9 3.9
0 1 -2 -0.1 0.9
0 1 -2 1.2 1.5
0 -1 2 0.6 1.3
0 -1 -2 1.6 1.8
0 1 2 -1.3 1.6
0 -1 2 0.5 1
0 -2 2 17 3.4
0 2 -2 12.3 3
0 2 2 15.8 3.6
0 -2 -2 21.4 4.4
0 3 2 -0.4 2.9
0 -3 -2 2.3 2.2
0 3 2 2.2 2.4
0 3 -2 1.7 2.6
0 4 2 1435.76 61.09
0 4 -2 1400.66 62.89
0 -4 -2 1423.36 57.79
0 4 2 1363.66 65.39
0 5 2 0.2 2.2
0 5 2 6.1 4.6
0 5 -2 -1.6 2.3
0 6 -2 464.25 29.9
0 6 2 492.45 26.6
0 7 2 1.8 2.5
0 7 -2 -1.5 3
0 7 2 -1.9 3.3
0 8 -2 209.28 24.6
0 8 2 194.78 25.6
0 8 2 191.38 15.5
0 9 2 0.2 2.9
0 9 2 -2 4.6
0 9 -2 1.4 4.6
0 10 2 -2.6 5.2
0 10 2 0 2.6
0 10 -2 11.8 7.9
0 11 2 7.5 8.5
0 11 2 -2.1 3.4
0 11 -2 7.7 7.8
0 12 -2 157.08 27.5
0 12 2 215.88 33.9
0 12 2 155.98 21.4
0 13 2 2.3 11.7
0 13 -2 -5.9 8.2
0 13 2 3 6
0 14 -2 -4.3 13.2
0 14 2 -3.8 12.9
0 15 -2 1.7 19
-1 0 -2 72.69 6.9
-1 0 2 81.09 5.1
1 0 -2 81.49 5.1
1 1 2 121.49 9.6
1 -1 -2 129.89 9.5
-1 1 -2 135.79 9.2
1 -1 2 130.29 8.1
-1 1 2 124.49 9.5
1 -1 2 139.59 9
-1 -1 -2 132.79 9.9
-1 1 2 142.69 9.2
1 -2 -2 209.88 13.3
-1 2 -2 237.18 12.1
1 -2 -2 202.28 14.1
-1 2 -2 224.48 13
1 2 2 217.48 13.9
-1 2 2 205.78 14.1
1 -2 2 216.48 13.1
-1 -2 -2 205.28 13.4
-1 2 2 211.88 13.5
-1 3 -2 2280.87 107.29
1 3 2 2815.82 111.29
-1 3 -2 2785.02 111.39
1 -3 -2 2837.02 110.09
1 -3 -2 2765.22 113.99
-1 -3 -2 2816.32 109.89
-1 3 2 2768.32 110.89
-1 3 2 2782.92 113.59
1 -3 2 2612.34 111.19
1 -4 -2 2662.33 106.39
1 4 2 2691.33 109.39
1 -4 -2 2602.14 106.29
-1 4 -2 2632.74 111.49
1 -4 -2 2569.44 113.89
-1 4 2 2688.83 109.19
-1 -4 -2 2688.93 106.29
1 4 -2 2675.63 110.89
-1 4 2 2636.94 113.59
1 -4 2 2644.94 111.59
1 5 2 4420.36 176.28
-1 5 -2 4340.17 180.18
-1 5 2 4380.46 182.68
-1 5 2 4414.26 176.18
1 -5 2 4337.17 180.78
1 5 -2 4382.96 179.68
1 6 2 130.49 11.4
1 6 2 121.69 19.6
-1 6 -2 142.09 17.2
-1 6 2 98.49 15.4
-1 6 2 111.39 10.6
1 6 -2 123.89 16
1 7 2 -2.7 3.2
-1 7 -2 1.2 3.8
1 7 2 4.6 3.3
-1 7 2 7.1 4.3
1 7 -2 3.3 5
-1 7 2 4.8 5.3
1 8 2 151.48 13.8
1 8 2 175.28 24.5
-1 8 -2 139.49 20.2
-1 8 2 160.18 14
1 8 -2 163.28 21.2
-1 8 2 162.28 22.4
1 9 2 10.8 5
-1 9 -2 5.8 6.2
1 9 2 -0.1 6
1 9 -2 10.2 7.7
-1 9 2 14.9 5.8
-1 9 2 10.9 8.4
1 10 2 1.6 3.8
1 10 2 5.5 8
-1 10 -2 1.4 5.8
-1 10 2 4.8 7.7
1 10 -2 0.7 5
-1 10 2 7.3 5.3
1 11 2 274.57 36.2
1 11 2 252.27 20.8
-1 11 -2 240.68 32.8
-1 11 2 254.07 20.7
1 11 -2 240.28 32.2
-1 11 2 243.38 34.3
1 12 2 65.79 19.6
-1 12 -2 55.89 17.1
1 12 -2 69.09 18.8
-1 12 2 26.7 14.2
1 13 2 277.57 23.3
-1 13 -2 243.98 35.8
1 13 2 225.68 38
1 13 -2 267.57 38.3
-1 13 2 325.47 45.2
1 14 2 -1.5 13.6
-1 14 -2 -1 12.2
1 14 -2 -5.2 20.2
-1 14 2 18.3 18.9
-1 15 -2 2 23.8
1 15 -2 -0.4 19.2
2 0 2 389.66 21.5
-2 0 -2 364.76 21.2
2 1 2 685.33 33.7
-2 1 -2 654.33 32.6
2 -1 -2 662.03 31.6
-2 -1 -2 657.83 33.4
-2 1 2 683.83 31.7
2 -1 2 725.23 32.9
2 2 2 1664.83 72.39
2 -2 -2 1678.93 71.49
-2 2 -2 1661.93 70.69
2 -2 -2 1621.64 71.99
-2 2 -2 1609.94 70.39
2 -2 2 1699.73 71.09
2 -2 2 1752.22 69.79
-2 -2 -2 1676.83 72.19
-2 2 2 1660.83 71.89
-2 3 -2 107.09 8.7
2 -3 -2 94.69 9.1
2 -3 -2 83.29 11
2 -3 -2 101.79 9.5
2 3 2 110.59 10.3
-2 3 -2 126.49 12.9
-2 3 2 89.59 11.3
-2 -3 -2 100.59 9.5
2 -3 2 81.29 10.3
2 4 2 579.44 30
2 -4 -2 555.24 27.8
-2 4 -2 572.84 31.1
2 -4 -2 459.15 26.4
-2 4 -2 568.54 26.7
2 -4 -2 562.94 32.5
-2 -4 -2 497.45 27
-2 4 2 559.94 29.1
-2 4 2 533.35 31.8
2 -4 2 579.64 31.3
2 -5 -2 3.6 2.1
-2 5 -2 1.3 2.2
2 5 2 2.8 2.8
2 -5 -2 3.7 4.6
-2 5 -2 -0.2 3
-2 -5 -2 2 1.9
-2 5 2 4.7 3.3
2 -5 2 11.7 4.8
-2 5 2 4.4 4.9
-2 6 -2 194.38 17.8
2 -6 -2 129.59 18.4
2 6 2 191.48 15
-2 6 2 164.98 20.6
2 -6 2 200.98 18.5
2 6 -2 171.38 19.4
-2 6 2 168.68 14
-2 7 -2 1.6 4.1
-2 7 -2 11 3.6
2 7 2 3.9 3.7
2 7 2 2.1 5.1
-2 7 2 4.7 5.6
2 -7 2 4.4 5.3
2 7 -2 1.9 2.2
-2 7 2 3.7 3.6
2 7 -2 4.1 4.2
-2 8 -2 11.6 3.8
2 8 2 10.4 7.3
2 8 2 0.3 3.2
-2 8 -2 9 6.8
-2 8 2 14.6 8.1
2 8 -2 7.2 5.6
-2 8 2 6.5 4.5
-2 9 -2 14.3 8.6
2 9 2 2.6 6.3
2 9 2 10.4 5.7
-2 9 -2 10.3 3.8
-2 9 2 16.1 6.1
-2 9 2 9.5 7.4
2 9 -2 11.2 7.4
2 9 -2 13.5 4.4
2 10 2 127.09 22.6
2 10 2 123.59 16.7
-2 10 2 92.99 20.4
2 10 -2 129.49 22.4
2 11 2 42.7 11
2 11 2 32.9 13.5
-2 11 -2 40.2 14.3
-2 11 2 16 10.6
2 11 -2 40.3 13.7
-2 12 -2 1.8 7.5
2 12 2 -1.5 7.2
2 12 2 -2.4 4.2
-2 12 2 -6.7 7.4
2 12 -2 -4.5 5.9
2 13 2 8.3 12.5
-2 13 -2 10.8 12
2 13 2 6.4 6.7
2 13 -2 3.2 10.1
-2 13 2 13.3 13.4
-2 14 -2 6.1 14.3
2 14 2 5.5 15.3
-2 14 2 4.5 14.3
2 14 -2 16 18.9
3 0 2 270.47 18.8
3 0 -2 278.17 19.2
3 1 2 18.1 5.8
3 -1 -2 17.4 6.1
-3 1 -2 15.7 4.9
3 -1 -2 18.8 5.1
-3 -1 -2 22.1 6.2
3 -1 2 28.4 6.6
3 -2 -2 1729.23 75.79
3 -2 -2 1712.33 76.89
3 2 2 1747.23 77.49
-3 2 -2 1762.42 76.29
-3 -2 -2 1742.13 77.09
3 -2 2 1759.12 75.59
3 -2 2 1746.93 75.19
-3 2 2 1664.43 75.29
-3 3 -2 988.7 47.3
3 -3 -2 973 49.3
-3 3 -2 1018.1 48.2
3 -3 -2 1000.8 48.3
3 -3 -2 951.8 46.8
3 3 2 1064.09 49.7
3 -3 2 1019.6 45.4
-3 -3 -2 1009.8 48.4
-3 3 2 964.2 48.8
3 -3 2 937.51 48
-3 -4 2 8921.81 532.85
-3 -4 2 9394.16 524.55
3 -4 -2 8204.98 572.94
-3 4 -2 9371.06 535.85
3 4 2 8796.22 563.04
-3 -4 -2 9038.79 572.34
-3 4 2 9066.69 588.24
3 -5 -2 117.19 10.1
3 -5 -2 107.69 9.9
3 -5 -2 119.89 17.2
3 5 2 117.89 15.2
-3 5 -2 114.29 15.7
-3 5 -2 100.89 12.4
3 -5 2 93.19 14.3
-3 5 2 85.89 13.4
3 5 -2 116.99 10.7
3 -6 -2 96.19 15.7
3 6 2 79.19 12.2
-3 6 -2 81.69 11
-3 6 -2 75.69 15.8
-3 6 2 104.59 16.3
3 6 -2 66.99 9.9
3 -6 2 52.79 11.5
-3 7 -2 27.1 8.8
3 7 2 20.5 6.6
-3 7 -2 19.8 5.5
3 -7 -2 9.3 7.4
3 -7 2 16.5 7.7
-3 7 2 8.2 6.6
3 7 -2 14.5 4.7
-3 8 -2 5.3 5.4
3 8 2 -0.2 3.4
-3 8 -2 1.9 3
-3 8 2 -2.8 5.4
3 -8 2 8.1 6.5
3 8 -2 2.8 3.1
3 8 -2 11 6.9
3 9 2 75.49 13.5
-3 9 -2 79.99 11.6
3 9 2 64.09 16.5
-3 9 -2 80.99 17.1
-3 9 2 78.89 20.2
3 9 -2 60.89 14.3
3 9 -2 69.89 10.7
3 10 2 1.7 6.8
3 10 2 3.1 4.4
-3 10 -2 3.3 6.2
-3 10 2 9.1 8.2
3 10 -2 6.7 4.3
3 10 -2 3.6 5.8
-3 11 -2 182.98 28.9
3 11 2 172.78 30.7
-3 11 2 140.69 26.8
3 11 -2 140.19 16.1
3 11 -2 91.19 19.6
3 12 2 303.37 41.4
3 12 2 254.57 23.9
3 12 -2 274.47 36.2
-3 12 2 254.87 37.4
-3 13 -2 -4.9 9.5
3 13 2 -2.1 6.1
3 13 2 -0.4 11.8
3 13 -2 -2.4 9
-3 13 2 -1.2 16.5
-3 14 -2 34.8 19.7
3 14 2 34.8 21.6
3 14 -2 38.1 20.2
4 0 2 1663.33 74.19
4 0 -2 1551.14 73.79
-4 0 -2 1562.64 73.89
4 1 2 2.9 3.6
-4 1 -2 6 4.5
4 -1 -2 3.5 3.6
4 -1 -2 0.7 3
4 1 -2 0.7 3.5
4 -1 2 0.9 2.8
-4 -1 -2 3.7 3.8
-4 2 -2 9.4 4.6
4 2 2 16.4 5.6
4 -2 -2 8.1 4.3
4 -2 -2 17.6 5.9
4 -2 2 13.9 5
4 -2 2 7.5 4.4
-4 2 2 11.9 5
4 2 -2 9 4.4
-4 -2 -2 16.4 6.6
4 -3 -2 4 3.8
-4 3 -2 5.8 4.1
4 -3 -2 -0.1 3.7
4 3 2 0.5 3
-4 -3 -2 1.7 3.1
4 3 -2 4.3 3.8
4 -3 2 3.3 3.1
4 -3 2 13.6 5.2
-4 3 2 2.6 3.6
4 -4 -2 111.29 15.4
-4 4 -2 156.58 14.7
4 -4 -2 140.59 13.1
4 -4 -2 145.99 13.9
-4 4 -2 148.89 16.7
4 -4 2 119.39 16.3
-4 -4 -2 154.48 14.2
4 4 -2 151.08 14.2
-4 4 2 166.28 18.9
4 -4 2 132.09 11.6
-4 5 -2 215.98 17.8
4 -5 -2 200.78 16
4 -5 -2 191.58 15.4
-4 5 -2 204.88 18.8
4 -5 -2 198.78 22.9
4 5 2 229.98 19.1
-4 -5 -2 204.48 16.1
4 -5 2 214.88 23.3
-4 5 2 197.88 22.6
4 5 -2 180.88 16.4
4 -5 2 209.68 12.6
4 -6 -2 178.88 13.3
4 -6 -2 188.08 22.9
-4 6 -2 174.58 21.7
-4 6 -2 183.58 16.4
4 6 2 166.68 16.6
4 -6 -2 181.38 13.4
-4 6 2 129.19 19.5
4 -6 2 177.48 22.7
4 6 -2 157.78 15.1
4 -7 -2 250.67 30.1
-4 7 -2 229.68 18.7
-4 7 -2 217.88 25.3
4 7 2 239.38 20.6
4 7 -2 186.08 17
-4 7 2 225.28 27.5
4 -7 2 202.78 25.2
-4 8 -2 52.09 13.1
-4 8 -2 60.09 11
4 -8 -2 44.4 12.7
4 8 2 51.39 11.3
4 8 -2 68.99 12
-4 8 2 64.99 14.9
4 -8 2 81.49 17.1
4 -9 -2 182.08 27.2
-4 9 -2 182.98 26.1
-4 9 -2 169.08 16.4
4 9 2 191.68 23.6
4 9 -2 146.19 22.5
-4 9 2 156.58 24.9
4 9 -2 167.08 16.1
4 -9 2 135.89 22.4
4 10 2 8.8 8.1
-4 10 -2 -1 5.7
4 10 2 -3.9 3.4
4 10 -2 -1.2 3.3
-4 10 2 5.2 7.4
-4 11 -2 61.59 17
4 11 2 58.09 18.1
4 11 2 80.69 15.9
-4 11 2 55.29 17
4 11 -2 35.8 13
4 11 -2 52.89 11.2
4 12 2 5 6.6
4 12 2 7.2 11.8
-4 12 -2 -2.3 8.3
-4 12 2 24 15.3
4 12 -2 5.6 6.7
4 12 -2 -3.1 6.8
-4 13 -2 26.7 16.4
4 13 2 5.5 8.7
-4 13 2 8.8 13
4 13 -2 15.8 8
4 13 -2 36.7 18.6
-4 14 -2 6.3 17
-4 14 2 -4.2 17
4 14 -2 10.6 16.7
5 0 -2 515.25 32.8
5 0 2 466.45 31.2
5 -1 -2 24.1 8
5 1 2 10 5.2
-5 1 -2 20 6.6
5 -1 -2 15.6 5.6
5 -1 2 20.7 7
-5 -1 -2 16.5 5.9
5 1 -2 14.5 5.5
-5 2 -2 853.51 48.5
5 -2 -2 886.81 46
5 -2 -2 934.61 49.4
-5 -2 -2 826.72 47.8
5 -2 2 858.01 46.8
5 2 -2 956.8 50.99
5 -2 2 849.22 45.7
5 3 2 127.69 18.1
-5 3 -2 111.99 15.1
5 -3 -2 143.29 17
5 -3 -2 174.98 21.1
-5 3 2 118.99 16.1
-5 -3 -2 102.79 14.5
5 3 -2 113.49 15.4
5 -3 2 130.29 15.8
5 -3 2 178.98 19.7
5 -4 -2 792.62 46.5
5 -4 -2 797.82 45.1
5 -4 -2 843.92 44.4
-5 4 -2 744.13 45.2
5 4 2 860.21 47.3
5 -4 2 807.62 42.6
5 -4 2 859.21 46.8
5 4 -2 822.02 45.9
-5 -4 -2 829.42 45.3
-5 5 -2 743.53 43.7
5 -5 -2 701.73 45.1
5 5 2 700.53 43.7
5 -5 -2 767.42 41.8
-5 5 -2 766.82 44.2
5 -5 -2 783.02 41.2
-5 -5 -2 723.83 40.9
-5 5 2 773.82 45
5 -5 2 759.92 38.1
5 -5 2 749.42 44.9
5 5 -2 737.83 43.2
5 -6 -2 669.83 36.1
-5 6 -2 609.64 40.5
5 -6 -2 636.44 42.8
5 6 2 637.34 40.6
-5 6 -2 640.54 39.6
5 -6 -2 664.53 35.5
5 -6 2 641.74 42.3
5 6 -2 657.03 39.3
-5 6 2 620.04 41.7
5 7 2 57.19 12.9
5 -7 -2 42 7.1
-5 7 -2 84.79 16.5
-5 7 -2 33.9 9.4
5 -7 -2 16.5 9.3
-5 7 2 48.4 12.9
5 -7 2 49 12.6
5 7 -2 19.1 7.6
-5 8 -2 73.19 16.3
5 8 2 44.3 11.9
-5 8 -2 43.2 10.8
5 -8 -2 74.29 16.6
5 -8 2 40.8 12.8
5 8 -2 72.89 14
5 9 2 4 6.5
5 -9 -2 35.7 22.4
-5 9 -2 15.8 8.6
-5 9 -2 13.9 6.3
5 -9 2 28 10.5
-5 9 2 3.2 7.4
5 9 -2 10 6.5
5 -10 -2 202.58 30.3
-5 10 -2 211.58 31.1
5 10 2 254.97 29.9
-5 10 2 220.78 32.6
5 -10 2 164.78 27.1
5 10 -2 202.38 28.9
5 10 -2 211.58 24.6
5 11 2 84.39 21.4
-5 11 -2 66.49 18.7
5 11 2 108.59 19.7
5 11 -2 70.09 18.9
5 11 -2 123.09 18.3
-5 11 2 83.69 22.8
5 12 2 159.08 24.9
-5 12 -2 156.38 30.5
5 12 2 157.58 30.5
-5 12 2 133.69 28.4
5 12 -2 198.68 24
-5 13 -2 66.79 21.6
5 13 2 44.7 14.7
5 13 2 110.09 28.8
-5 13 2 54.79 22.6
5 13 -2 92.69 24.1
5 13 -2 64.99 14.8
5 14 2 33.2 24.5
-5 14 -2 33 23.6
5 14 -2 2.3 18.6
6 0 2 51.39 15
-6 0 -2 66.19 13.8
6 0 -2 53.19 11.9
6 -1 -2 2153.28 96.49
6 1 2 2257.97 102.09
-6 1 -2 2231.18 102.89
-6 -1 -2 2129.59 101.89
6 -1 2 2140.59 100.49
6 1 -2 2036.9 101.09
6 2 2 210.38 20.1
-6 2 -2 143.09 19.2
6 -2 -2 190.98 20.9
6 -2 -2 162.88 21.3
6 2 -2 211.98 25.5
-6 -2 -2 136.99 18.8
6 -2 2 170.58 19.5
6 -2 2 176.78 17.8
6 3 2 21.8 8
-6 3 -2 18.1 8.1
6 -3 -2 9.9 5.7
6 -3 -2 23.4 7.5
6 -3 2 14.8 6.7
6 3 -2 2.2 3.9
-6 -3 -2 5.8 4.3
6 -3 2 11.6 5.1
6 -4 -2 440.36 31.4
6 4 2 440.36 32.4
6 -4 -2 399.66 30.9
-6 4 -2 456.95 32.8
6 -4 2 383.86 28.1
6 4 -2 426.56 31.7
-6 4 2 495.85 32.5
6 -4 2 475.65 32.3
6 -5 -2 49.2 11.2
-6 5 -2 44.1 11.2
6 5 2 53.79 12.6
6 -5 -2 53.69 11.7
6 -5 -2 54.09 12.7
-6 5 2 55.49 12.9
6 -5 2 45.2 9.4
6 5 -2 44.9 11.2
6 -5 2 45.9 11.6
-6 -5 -2 48.1 10.6
-6 6 -2 189.78 25.6
6 -6 -2 229.08 18.9
6 6 2 225.58 22.6
6 -6 -2 201.98 25.1
6 -6 -2 203.88 18.5
6 -6 2 168.58 23.2
6 6 -2 238.68 22.2
-6 6 2 246.78 28.3
6 -6 2 224.08 16.3
6 -7 -2 51.59 14.1
-6 7 -2 38.9 11
-6 7 -2 36.7 10.9
6 -7 -2 56.39 11.5
6 -7 -2 57.29 10
6 7 2 58.19 13.5
6 -7 2 60.19 14.8
6 7 -2 65.19 13.5
6 -8 -2 176.28 25.9
-6 8 -2 183.18 26.8
-6 8 -2 199.58 24.9
6 8 -2 184.78 24.8
6 -8 2 114.49 21.3
-6 9 -2 15.5 9.2
-6 9 -2 32.6 10.3
6 -9 -2 48.5 15.5
6 9 2 19.4 9.2
-6 9 2 21.8 11.4
-6 10 -2 3.7 8.9
6 -10 -2 15.6 10.7
6 10 2 1 5.6
-6 10 2 -3.3 5.8
6 10 -2 2.6 6.3
6 -10 2 -0.6 6.6
-6 11 -2 12.5 10.7
6 11 2 11.9 9.5
6 11 -2 26.1 12.7
6 -11 2 43 14.3
6 11 -2 28.2 10.6
-6 11 2 -2.4 8
6 12 2 9.9 9.8
-6 12 -2 -1.9 10.8
6 12 2 5.4 11.9
6 12 -2 9.5 9.2
6 12 -2 13.4 13.8
6 13 2 32.5 15.7
-6 13 -2 28.8 18.8
6 13 2 7.9 16.4
6 13 -2 42.7 20.5
-6 13 2 15.7 19.7
7 0 -2 429.66 32.8
-7 0 -2 376.16 36.2
7 0 2 390.56 31
7 -1 -2 82.09 16.8
7 -1 -2 86.59 13.6
-7 1 -2 109.19 19.5
7 1 2 99.99 17.5
-7 -1 -2 51.89 12
7 -1 2 95.19 17.4
7 1 -2 55.79 11.9
7 2 2 49.7 12.9
7 -2 -2 41.8 10.2
-7 2 -2 24.3 9.1
7 -2 -2 23.1 7.9
7 -2 2 59.29 14.1
7 2 -2 30.5 10
-7 -2 -2 37.3 11
7 -2 2 33.5 8.8
7 -3 -2 1687.33 86.29
7 -3 -2 1742.63 84.29
-7 3 -2 1797.02 88.49
7 3 2 1778.42 87.99
-7 -3 -2 1765.12 87.09
7 -3 2 1570.34 83.19
7 3 -2 1622.24 86.09
7 -3 2 1677.43 83.59
7 -4 -2 68.29 13.5
7 -4 -2 54.79 13.4
-7 4 -2 46 12.3
7 4 2 53.19 14
7 4 -2 59.39 14.1
-7 -4 -2 64.69 14.1
7 -4 2 89.19 15.7
7 -4 2 73.89 12.9
7 -5 -2 2667.63 118.79
-7 5 -2 2508.55 123.19
7 -5 -2 2632.64 123.69
7 5 2 2515.65 123.09
7 -5 -2 2520.45 119.59
7 5 -2 2666.13 123.59
7 -5 2 2581.24 116.99
7 -5 2 2694.13 123.19
-7 -5 -2 2663.43 120.59
7 -6 -2 -1.9 4.6
7 6 2 4.6 6.1
7 -6 -2 8.7 5.9
7 -6 -2 -1.3 2.9
-7 6 -2 3 5.7
7 -6 2 -0.5 2.8
7 -6 2 -4.5 4
7 6 -2 2.9 4.6
7 -7 -2 7.8 5.3
7 -7 -2 7.9 5.2
-7 7 -2 5.2 5.9
7 -7 -2 4.6 6.5
7 7 2 1.6 5.4
7 7 -2 1.5 5
7 -7 2 11.5 4.7
7 -7 2 11.5 4.4
7 -7 2 0.8 5.5
7 8 2 -3.7 3.9
7 -8 -2 -0.8 2.9
-7 8 -2 -0.3 4.3
7 -8 -2 -2.8 5.1
7 -8 -2 3.5 3.3
7 8 -2 0.8 5.8
7 -8 2 -5.2 3.2
-7 9 -2 52.79 15.1
-7 9 -2 30.3 11.2
7 9 2 52.79 16.1
7 -9 -2 34.4 13.1
7 9 -2 52.89 15.3
7 -9 2 74.99 17.5
-7 9 2 32.9 13.5
-7 10 -2 39.1 15
7 -10 -2 26.8 14
7 10 2 13.7 9.5
7 10 -2 27.7 12.7
7 -10 2 18.6 11.6
-7 10 2 18 12.1
-7 11 -2 153.08 28.9
7 -11 -2 151.58 30.4
7 11 2 122.59 24.3
7 11 -2 119.79 24.9
7 -11 2 178.08 30.8
7 11 -2 133.09 22.8
-7 11 2 124.69 27.5
-7 12 -2 28.6 26.9
7 12 2 5.7 10.7
7 12 -2 7 12.1
7 -12 2 8.8 12.4
7 12 -2 31.6 14.4
-7 12 2 16.1 19.1
7 13 2 45.9 29.4
7 13 -2 50.49 23.1
-7 13 2 69.89 43.2
8 0 -2 9.3 6.5
8 0 2 12 7.5
-8 0 -2 -1.3 2.8
8 -1 -2 10 6.2
8 1 2 -0.2 3.7
-8 1 -2 10.9 8
8 -1 -2 3.4 4.6
8 -1 2 0.8 3.6
8 1 -2 4.1 4.5
-8 -1 -2 5.3 6.1
8 -2 -2 135.29 20
8 2 2 197.78 28.2
8 -2 -2 126.79 19.8
-8 2 -2 149.79 24.1
-8 -2 -2 171.38 25.1
8 2 -2 157.08 24.6
8 -2 2 171.58 22.3
8 -2 2 133.79 19.8
8 3 2 415.86 35.5
-8 3 -2 468.05 37.7
8 -3 -2 481.45 35.2
8 -3 -2 442.26 36
8 -3 2 519.95 36.7
-8 -3 -2 461.35 36.3
8 -3 2 467.35 34.7
8 3 -2 404.56 35.3
8 -4 -2 54.59 13.2
8 4 2 52.49 12.9
-8 4 -2 63.49 16.3
8 -4 -2 61.29 14.5
8 -4 2 55.89 13.7
-8 -4 -2 62.49 14.3
8 4 -2 52.29 13.2
8 -4 2 49.9 14
8 -5 -2 152.98 23
8 -5 -2 119.69 29.7
8 5 2 131.49 25.2
-8 5 -2 185.68 27.9
8 -5 2 110.99 19.3
8 5 -2 159.48 29.3
-8 -5 -2 160.18 23.6
8 -5 2 148.19 21.4
-8 6 -2 124.39 22.3
8 -6 -2 133.19 22.3
8 -6 -2 141.79 19.8
8 -6 -2 197.18 25.7
8 6 2 142.79 23.2
8 -6 2 188.48 22.2
8 -6 2 163.88 25.4
8 6 -2 152.88 23.9
8 -7 -2 17.7 11.6
8 7 2 13.5 9.5
8 -7 -2 5.7 5.5
8 -7 -2 1.7 4
-8 7 -2 32.1 11.4
8 -7 2 8.3 4.4
8 -7 2 11.1 8.4
8 -7 2 12.3 5.6
8 7 -2 4.5 6.4
8 8 2 144.09 25
8 -8 -2 103.59 21.6
-8 8 -2 145.79 26.5
8 -8 -2 153.88 15.3
8 -8 -2 138.89 17.2
8 -8 2 128.69 23.5
8 8 -2 142.59 24.1
-8 9 -2 57.79 16.5
8 -9 -2 42.9 15.2
8 9 2 49 16.3
8 -9 2 38.5 13.4
8 9 -2 41.8 14.6
-8 9 2 61.79 17.7
8 -10 -2 -4.6 5.7
8 10 2 6.8 8.2
8 -10 2 -0.4 6
-8 10 2 -3.3 8
8 10 -2 2.8 14.4
8 11 2 7.2 10.8
8 -11 -2 32 16.2
8 -11 2 11.7 10.6
8 11 -2 8.6 10.7
8 -12 -2 64.49 21.7
8 12 2 72.29 21.9
8 12 -2 56.39 21
-8 12 2 73.89 24.6
8 12 -2 48.6 19.8
8 -12 2 40.3 17
8 13 -2 2 18.1
9 0 -2 415.96 36.4
-9 0 -2 415.36 36.3
9 0 2 366.86 33.6
9 -1 -2 -3.8 3.2
9 -1 -2 0.2 3.5
9 1 2 -4.2 3.1
-9 1 -2 -2 2.6
-9 -1 -2 -2.2 3.7
9 -1 2 -0.1 3.6
9 1 -2 -1.9 3.2
-9 2 -2 126.69 24.6
9 -2 -2 124.19 19
9 2 2 101.39 18.3
9 -2 -2 98.79 21.6
9 -2 2 118.79 21.6
9 -2 2 81.79 15.8
9 2 -2 90.49 18
-9 -2 -2 105.79 20.7
-9 3 -2 874.21 59.99
9 -3 -2 937.71 59.69
9 -3 -2 902.81 55.89
-9 -3 -2 1030.8 61.49
9 -3 2 947.71 58.49
9 -3 2 866.41 55.19
9 3 -2 901.21 74.59
9 -4 -2 355.46 31.5
-9 4 -2 313.87 39.7
9 -4 -2 355.36 32.7
9 -4 2 367.76 32.2
-9 -4 -2 418.36 35
9 -4 2 365.66 31.7
9 4 -2 385.26 35.5
-9 5 -2 388.26 36.1
9 -5 -2 399.06 34.2
9 -5 -2 350.06 32.2
9 5 2 374.56 35.6
-9 -5 -2 401.56 33.9
9 5 -2 366.16 35.4
9 -5 2 356.56 34.1
9 -5 2 390.36 34.2
9 -6 -2 284.37 38.8
9 -6 -2 284.07 26.1
9 6 2 347.17 42.4
9 -6 -2 263.07 26.7
-9 6 -2 288.57 37.3
9 -6 2 313.17 26.5
9 6 -2 207.38 30.1
9 -6 2 237.58 31.8
9 -7 -2 -1.3 4.2
-9 7 -2 -3.7 3.3
9 -7 -2 -1.9 3.3
9 7 2 -3.2 5
9 -7 -2 -2.5 5.1
9 -7 2 -1.5 4.9
9 7 -2 -0.3 5.1
9 -7 2 -0.7 3.2
9 -8 -2 -0.5 3.4
9 -8 -2 -1.7 3.3
-9 8 -2 -2.7 3.9
9 8 2 0.5 8
9 -8 -2 0.9 6.7
9 -8 2 -1.9 2.7
9 8 -2 0.9 6.2
9 -8 2 0.3 5.8
-9 9 -2 5.6 7.7
9 -9 -2 -0.2 3.1
9 -9 -2 1 6.7
9 9 2 -0.9 7.6
9 -9 2 0.1 7.4
9 9 -2 -3.6 6.2
9 10 2 9 12.1
9 -10 -2 22.6 13.7
9 10 -2 30.8 15
9 -10 2 3 8.1
9 11 2 108.79 25.3
9 -11 -2 120.49 27.1
9 -11 2 124.59 35.5
9 12 2 244.78 52.39
9 -12 -2 268.57 55.09
9 12 -2 204.28 36
9 -12 2 279.37 42.7
10 0 2 207.98 29
10 0 -2 266.97 46
-10 0 -2 133.19 22.3
10 -1 -2 10.2 7.9
10 -1 -2 10.2 9.8
-10 1 -2 14 9.5
10 1 2 32.5 13.4
10 -1 2 11 9.2
-10 -1 -2 21.4 9.3
10 1 -2 11.2 8.8
10 2 2 174.78 25.7
10 -2 -2 144.29 24.5
10 -2 -2 122.89 21.1
-10 2 -2 243.38 35.8
-10 -2 -2 200.88 30.6
10 -2 2 168.88 24.6
10 -2 2 136.09 22
10 -3 -2 610.94 43.6
-10 3 -2 607.74 48.4
10 -3 -2 642.94 48
10 -3 2 576.34 45
-10 -3 -2 564.34 45.8
10 -3 2 539.55 42.1
10 -4 -2 184.08 27.4
10 -4 -2 170.18 27.8
-10 4 -2 141.89 24.3
10 -4 2 160.98 24.6
10 -4 2 214.28 29.2
10 4 -2 229.28 36.1
-10 -4 -2 167.68 25.8
-10 5 -2 43.6 15.8
10 5 2 38.6 15.1
10 -5 -2 48 16.4
10 -5 -2 48.6 15.6
-10 -5 -2 48.2 13.1
10 -5 2 59.59 19.5
10 5 -2 45.1 15.3
10 -5 2 37.3 12.4
10 -6 -2 21 9.1
-10 6 -2 21.3 10.7
10 -6 -2 9.9 8.8
10 -6 -2 18.7 10
10 6 2 3.6 8
10 -6 2 8.8 8.3
10 6 -2 11 8.9
10 -6 2 11.1 8.9
-10 7 -2 -1.8 4.4
10 7 2 0 6.7
10 -7 -2 10.2 9.5
10 -7 -2 -2.4 5.2
10 -7 -2 1.1 4.8
10 7 -2 3.2 8.2
10 -7 2 -4.1 5.2
10 -7 2 0.1 4.4
10 -8 -2 2 5
10 -8 -2 8.1 9.2
10 8 2 -1.4 7.6
-10 8 -2 -2.2 4.7
10 -8 -2 4.1 5.6
10 8 -2 4.3 8.7
10 -8 2 -0.2 3.3
10 -8 2 -0.6 6.8
10 -8 2 -1 3.1
10 -9 -2 4 8.7
10 -9 -2 1.1 4
10 9 2 4.9 17.3
-10 9 -2 -2.7 4.2
10 -9 -2 -2.1 3.3
10 9 -2 -1.6 9
10 -9 2 0.3 6.6
10 10 2 -3.2 10.8
10 -10 -2 36.9 22.8
10 10 -2 18.1 15.1
10 -10 2 23.7 13.5
10 11 2 -0.1 15.6
10 -11 -2 -8.5 6.8
10 11 -2 -1.2 15.5
10 -11 2 -2.1 7.6
10 -12 -2 -0.2 10.1
10 -12 2 -3.8 9.1
-11 0 -2 5.3 7.6
11 -1 -2 13.9 9.2
11 -1 -2 1.7 5.8
-11 1 -2 27 11.4
-11 -1 -2 7.3 8.9
11 -1 2 11.3 10.1
11 -2 -2 294.37 36.8
11 -2 -2 307.67 35.3
-11 2 -2 432.36 40.6
-11 -2 -2 433.36 40.1
11 -2 2 370.66 34.1
11 -3 -2 -2.2 4.3
-11 3 -2 -3.1 4.7
11 3 2 0.9 5.3
11 -3 2 3.4 6.1
11 -3 2 -1.4 5.3
-11 -3 -2 0.1 5.6
11 -4 -2 446.46 41.4
-11 4 -2 413.56 41.8
11 -4 -2 531.75 42.2
-11 -4 -2 450.75 41.3
11 -4 2 480.65 41.2
11 -4 2 474.75 40
11 -5 -2 6 7.6
-11 5 -2 3.6 7.9
11 5 2 6.2 10.9
11 -5 -2 19.2 11.7
11 5 -2 24.5 12.6
11 -5 2 17.8 10.9
11 -5 2 0.6 6.4
11 -6 -2 95.89 21.8
-11 6 -2 77.49 20.3
11 -6 -2 75.29 16.7
11 -6 -2 107.89 24
11 6 2 148.39 32
11 -6 2 120.29 24.2
11 6 -2 125.19 26.8
11 -6 2 129.59 23.2
11 -7 -2 -3.9 4.3
11 -7 -2 0.4 4.7
11 -7 -2 -3.9 4.7
-11 7 -2 11.2 10.3
11 7 2 0.4 8.6
11 7 -2 2.3 8.6
11 -7 2 -0.4 6.9
11 -7 2 -2 4.4
11 -8 -2 -2.4 4.8
11 8 2 4 10.9
-11 8 -2 -0.9 6
11 -8 -2 7.7 9.9
11 -8 -2 0.8 5.3
11 -8 2 2 4.6
11 -8 2 -0.1 4.5
11 -8 2 -0.5 7.7
11 9 2 1.4 12.4
11 -9 -2 -1.8 4.1
11 -9 -2 6.9 5.6
11 -9 -2 6 7.3
11 9 -2 -1.2 11.8
11 -9 2 -5.8 5.6
11 -10 -2 98.39 25
11 10 -2 46.8 27.4
11 -10 2 79.09 22.9
11 -11 -2 -4.1 9.9
11 -11 2 -3.5 9.3
12 0 2 1.1 6.5
12 0 -2 8.6 9.1
12 0 -2 10.5 8.1
-12 0 -2 38.5 14.7
12 1 2 121.19 27.3
12 -1 -2 103.79 20.9
-12 1 -2 104.89 24
12 -1 2 83.29 25.1
-12 -1 -2 111.29 23.9
12 1 -2 77.99 20.6
-12 2 -2 60.59 19.7
12 -2 -2 52.19 15
-12 -2 -2 43.9 15.7
12 2 -2 42 19.8
12 -2 2 108.59 21.2
12 -3 -2 -2.6 5.1
12 3 2 9 11.2
-12 3 -2 5.6 8.4
12 -3 2 5.8 9
12 -3 2 10.5 9.4
12 3 -2 5.8 10.6
-12 -3 -2 18.4 11.8
12 -4 -2 41 15
12 4 2 24 15.9
-12 4 -2 16.7 13.2
12 -4 -2 31.3 15.1
12 -4 2 6.5 8.3
12 4 -2 23.4 12.9
-12 5 -2 5.6 8.2
12 -5 -2 6.1 10.9
12 -5 -2 10.5 8.6
12 5 2 5.8 9.9
12 -5 2 6.1 8.2
12 -5 2 -1.9 5.5
12 5 -2 -1.5 7.5
12 -6 -2 139.89 27.7
-12 6 -2 138.69 31
12 -6 -2 91.49 33.9
12 -6 2 132.79 25.1
12 -6 2 129.59 25.4
-12 7 -2 65.09 21.1
12 7 2 27.5 17.6
12 -7 -2 67.89 17.1
12 -7 -2 47.8 16
12 -7 -2 88.99 23.6
12 7 -2 52.59 21.1
12 -7 2 62.69 19.1
12 -7 2 65.69 17.8
12 -8 -2 4.4 10
12 -8 -2 28.7 12.7
12 -8 -2 41.6 13.7
-12 8 -2 47.4 17.7
12 -8 2 31.2 15.6
12 8 -2 12 15.3
12 -8 2 41.4 11
12 -8 2 39.3 11.8
12 -9 -2 -3.4 6.6
12 -9 2 18.5 7.8
12 -9 2 8.4 11.3
12 -10 -2 -7.4 7.3
12 -10 2 2.5 9.2
13 0 2 61.99 21
13 0 -2 66.89 17.1
-13 0 -2 56.19 17.2
13 0 -2 51.59 19.1
13 -1 -2 20 11.3
-13 1 -2 -3.3 4
13 -1 -2 0.8 8.4
13 1 2 0.3 8
-13 -1 -2 2.3 6.9
13 1 -2 -0.7 7.8
13 -1 2 0.7 6.6
13 -1 2 -4 7.1
13 2 2 68.49 19.9
13 -2 -2 105.59 25.4
-13 2 -2 166.48 34.7
13 -2 -2 159.98 27.8
13 -2 2 168.08 32.9
13 2 -2 74.89 20.2
-13 -2 -2 147.99 29.8
13 -2 2 150.68 27
13 -3 -2 274.87 43.8
-13 3 -2 223.18 34.6
13 3 2 225.98 39.6
13 -3 -2 232.78 33.6
13 -3 2 235.78 33.5
13 3 -2 403.56 54.99
-13 -3 -2 283.67 43
-13 4 -2 219.98 38.5
13 -4 -2 238.38 34.8
13 -4 2 192.68 31.3
13 5 2 30.2 18.1
-13 5 -2 93.29 25.2
13 -5 -2 85.09 21.1
13 -5 2 62.99 19.5
13 -5 2 38.6 15.8
13 5 -2 43.4 18.1
13 6 2 14.8 15.6
13 -6 -2 49.1 16.4
-13 6 -2 49 18.1
13 -6 -2 27.6 14.9
13 -6 2 34.7 15.4
13 -6 2 36.4 16.2
13 6 -2 32.3 18.4
-13 7 -2 130.99 31.7
13 -7 -2 89.79 22.8
13 -7 -2 84.59 19.4
13 7 2 78.89 30.2
13 -7 2 114.59 23.2
13 7 -2 109.29 31
13 -8 -2 6.3 9.6
13 -8 -2 21.7 11.3
13 -8 2 5.5 10.3
13 -8 2 33.4 12
13 -9 -2 20.3 10.4
13 -9 -2 18 13.9
13 -9 2 -3.5 8.7
13 -9 2 6.6 7.7
14 0 -2 -2.5 9.4
-14 0 -2 0.9 6.5
14 0 -2 13.7 10.1
14 0 2 13.1 15.1
14 -1 -2 10.3 9.8
14 -1 -2 11.3 11.9
-14 1 -2 25.2 14.3
14 1 2 11.2 15.6
14 -1 2 6 12.7
14 1 -2 7.1 9.2
-14 -1 -2 20.2 12.6
14 -1 2 62.09 18.9
-14 2 -2 57.09 20.2
14 -2 -2 8.1 13.5
14 2 2 17.3 14.5
14 -2 -2 36.2 14.3
-14 -2 -2 50.99 19.4
14 -2 2 16.6 12.1
14 -2 2 31 17.9
14 2 -2 23 16.1
14 -3 -2 9.7 11.2
14 3 2 1.1 12.4
14 -3 -2 18.8 15.5
-14 3 -2 1.9 7.7
14 -3 2 1.6 8.7
14 3 -2 -0.1 11.6
14 -3 2 -3.4 9.4
-14 4 -2 3.8 8.7
14 -4 -2 19 18.6
14 4 2 0 13.2
14 -4 -2 7 10.9
14 -4 2 60.09 19.7
14 4 -2 28.6 18.4
14 -4 2 12.7 12.2
-14 5 -2 -4.8 5.3
14 5 2 -3.6 13.1
14 -5 -2 -4.2 9.5
14 -5 -2 -3.9 7.1
14 -5 2 0.4 9.1
14 5 -2 -0.5 12.5
14 -5 2 -0.7 7.7
14 -6 -2 -1.6 9.8
14 -6 -2 24.7 14.5
-14 6 -2 24.1 18.2
14 -6 2 12.1 11.4
14 -6 2 4.8 16
14 -7 -2 2 8.1
14 -7 -2 21.9 11.2
14 -7 2 16.1 14.2
14 -8 -2 -5.1 7.5
14 -8 -2 7.2 9.5
14 -8 2 9.2 12.9
14 -8 2 3.8 7.3
15 0 2 113.69 29.9
15 0 2 158.18 29.3
15 0 -2 152.58 28.5
15 0 -2 159.78 38.2
-15 1 -2 22.2 13.8
15 -1 -2 2.4 8.9
15 1 2 11.4 16.4
15 -1 -2 3.7 12.9
15 -1 2 3.2 12.6
15 1 -2 8.1 17
15 -1 2 8.9 11.3
15 1 -2 23.9 14.1
-15 2 -2 48.3 21.1
15 -2 -2 7.8 9.9
15 -2 -2 13.7 18.2
15 -2 2 46 23.7
15 2 -2 25.3 22.4
-15 3 -2 65.39 20.8
15 -3 -2 62.59 24.6
15 -3 2 78.89 21.6
15 -3 2 49 20.8
15 -4 -2 5.9 15.3
15 -4 -2 4.9 9.7
15 -4 2 -2.1 11.6
15 -4 2 3.1 9.3
15 -5 -2 291.47 42.6
15 -5 2 287.37 43.1
15 -6 -2 41 15.1
15 -6 -2 45.3 18.1
15 -6 2 90.39 24.3
15 -7 -2 6 8.3
15 -7 -2 5 10.7
15 -7 2 -5.8 8.4
16 0 -2 -1.9 8.5
16 0 2 -1.5 8.3
16 -1 -2 -1.7 8
16 -1 -2 -0.5 19.3
16 1 -2 -2.4 8.3
16 -1 2 8.6 10.7
16 -1 2 8.7 23.6
16 -2 -2 3.1 9.5
16 -2 2 -6.1 15.8
16 -2 2 -0.5 8.9
16 2 -2 5.9 9.9
16 -3 -2 10.2 13.3
16 -3 -2 -0.2 19.7
16 -3 2 8.7 12.6
16 -4 -2 116.39 28.1
16 -4 2 80.89 24.8
16 -5 -2 11 12.8
16 -5 2 20.8 15.1
17 0 2 48.9 21.5
17 0 -2 83.19 23.8
17 1 2 12.3 13.9
17 -1 -2 -1.8 9
17 1 -2 16.5 14
17 -1 2 -0.1 10.3
17 -2 -2 -1.5 8.8
17 -2 2 -6.9 8.1
17 2 -2 -6.3 8.6
0 0 3 1.5 2.2
0 0 -3 -2 1.7
0 1 3 0.8 2.4
0 -1 3 0.6 0.9
0 1 -3 4.1 2.6
0 -1 3 -0.7 1.7
0 -1 -3 5.2 2.6
0 2 3 281.37 17.4
0 -2 -3 246.68 16.7
0 2 -3 265.17 13.5
0 2 -3 276.97 14.7
0 -3 3 -0.5 2.1
0 3 3 -0.4 2.6
0 -3 -3 -0.6 2.3
0 3 3 -1 2.2
0 3 -3 0.1 1.7
0 3 -3 -1.5 1.7
0 4 3 1080.69 52.89
0 -4 -3 974.1 47.3
0 4 -3 1127.79 49.3
0 4 3 1063.19 49.6
0 5 3 0.2 2.3
0 5 3 3.8 4.9
0 5 -3 -4.5 1.4
0 -5 -3 0.1 1.6
0 6 3 304.57 25.4
0 6 3 370.46 22.9
0 6 -3 348.57 24.1
0 7 3 2.1 2.9
0 7 -3 -1.4 2.7
0 7 3 -1.5 3.3
0 8 3 610.34 41.9
0 8 3 549.25 33.2
0 8 -3 601.74 38.7
0 9 3 -0.7 2.9
0 9 3 -2.6 5.1
0 9 -3 -0.8 3.7
0 10 -3 39.2 12.4
0 10 3 53.89 16.3
0 10 3 54.59 11.1
0 11 -3 1.2 6
0 11 3 -3.2 3.5
0 11 3 -2.7 5.8
0 12 -3 148.49 26.7
0 12 3 141.19 20.1
0 12 3 172.78 31.3
0 13 3 3 7.1
0 13 -3 9.2 11
0 13 3 -4.7 9.4
0 14 3 35.9 21.3
0 15 -3 -2.6 29.9
1 0 3 -1.1 1.7
-1 0 3 0.1 1.3
1 0 -3 1.9 1.5
-1 0 -3 -1 1.8
-1 0 3 -0.1 2.1
1 0 -3 -0.7 2.1
1 1 3 2144.19 85.29
-1 1 -3 1976.5 83.59
1 -1 -3 1902.11 81.79
1 -1 -3 1961.3 84.49
-1 1 3 1958.4 84.29
1 -1 3 2090.19 83.39
-1 1 3 1982.2 81.89
-1 -1 -3 2093.09 85.29
1 2 3 9131.29 543.35
-1 2 -3 9999 506.05
-1 -2 3 9334.87 495.25
1 2 -3 9070.59 492.15
1 -2 3 9706.73 495.25
-1 2 3 8894.51 538.85
-1 3 -3 1398.46 58.19
-1 3 -3 1408.56 60.29
1 -3 -3 1403.06 63.59
1 3 3 1450.85 62.59
1 -3 -3 1242.88 60.69
-1 3 3 1405.16 63.29
-1 3 3 1445.76 62.29
1 3 -3 1407.06 59.09
1 -3 3 1353.06 60.09
1 -4 -3 26.6 5.7
1 4 3 42.2 7.9
-1 4 -3 29.1 6.1
-1 4 -3 37.5 6.5
-1 -4 -3 31.5 5.9
1 -4 3 28 6.3
-1 4 3 41.3 8.8
-1 4 3 33.5 6.6
1 4 -3 34.7 6.6
1 5 3 104.99 12.8
-1 5 -3 86.39 6.3
1 -5 -3 90.69 8
1 -5 -3 82.19 8
-1 5 -3 103.89 13.3
-1 5 3 105.59 13
-1 -5 -3 98.89 8.3
1 5 -3 103.89 12.5
1 -5 3 77.59 12.2
-1 5 3 98.69 14.5
1 6 3 94.99 13.1
-1 6 -3 73.69 12
1 6 3 83.89 14.7
-1 6 3 79.19 11.5
1 -6 3 93.59 14.1
-1 6 3 113.19 17
1 6 -3 90.29 13
1 7 3 701.73 38.8
-1 7 -3 731.43 43.8
1 7 3 708.03 45.4
-1 7 3 730.13 39.1
1 7 -3 755.62 42.4
-1 7 3 703.63 44.9
1 8 3 34.1 11.4
-1 8 -3 29.3 9
1 8 3 39.8 9
1 8 -3 55.39 11.8
-1 8 3 44.6 12.3
-1 8 3 41.2 9.1
-1 9 -3 46.3 11.9
1 9 3 43.3 12.7
1 9 3 34.7 8.5
1 9 -3 52.99 12.3
-1 9 3 44.7 10.2
-1 9 3 39.3 13.1
1 10 3 170.98 17.2
1 10 3 158.78 26.2
-1 10 -3 183.38 26.1
1 10 -3 183.08 25.2
-1 10 3 173.28 17.2
-1 10 3 168.08 26.9
1 11 3 110.19 17.3
1 11 3 108.99 23.7
-1 11 -3 97.89 19.5
1 11 -3 135.39 23.4
-1 11 3 104.29 16.3
-1 11 3 131.39 24.8
1 12 3 5.3 10.4
1 12 3 35.5 10.7
-1 12 -3 21.5 12.3
-1 12 3 43.2 12.4
1 12 -3 18.3 11.1
-1 12 3 11.1 11.5
1 13 3 4.4 13.2
-1 13 -3 7.6 10.4
1 13 3 0.7 6.1
-1 13 3 12.8 16.4
1 13 -3 5.4 10.1
1 14 3 8.9 17.7
-1 14 -3 -1 15.1
1 14 -3 20 17.8
-1 14 3 -5.1 16.8
-2 0 -3 1.2 2.5
2 0 -3 -1.2 1.6
2 0 3 0.1 2.5
-2 1 -3 51.99 7.8
2 1 3 47.6 9
2 -1 -3 39.5 6.6
2 -1 -3 58.99 7.6
2 -1 3 45 7.8
-2 1 3 59.69 7.5
-2 -1 -3 42.5 7.2
2 -2 -3 -0.5 2.6
2 -2 -3 -0.5 2.2
2 2 3 0.4 2.6
-2 2 -3 0.8 2.4
2 -2 3 -0.1 2.4
-2 -2 -3 -0.4 2.4
2 -2 3 2.4 2.7
-2 2 3 -3 2.4
-2 3 -3 742.53 35.7
2 3 3 793.52 39
2 -3 -3 702.73 37
-2 3 -3 766.02 36.8
2 -3 -3 748.73 39
-2 3 3 745.63 37.9
-2 -3 -3 742.13 37.9
2 -3 3 766.52 33.2
2 -3 3 710.63 36.6
-2 3 3 750.82 38.8
2 4 3 672.13 36.2
2 -4 -3 673.63 34.9
-2 4 -3 696.33 35.8
2 -4 -3 643.24 34.2
-2 4 -3 635.24 32.2
2 -4 -3 665.83 38
-2 -4 -3 687.83 34.8
2 -4 3 689.73 36.4
-2 4 3 730.83 36.2
-2 4 3 663.63 37.7
2 -5 -3 338.37 20.5
-2 5 -3 321.07 23.2
-2 5 -3 363.16 19.6
2 5 3 360.16 23.4
2 -5 -3 359.86 26.5
2 -5 -3 345.07 20.7
2 -5 3 377.46 24.7
-2 5 3 331.47 22.5
-2 5 3 373.46 26.4
-2 -5 -3 352.66 20.8
-2 6 -3 214.08 18.7
2 6 3 227.58 18
2 -6 -3 243.88 13.5
-2 6 -3 230.28 15.6
-2 6 3 237.38 18
2 -6 3 261.77 20.9
-2 6 3 279.77 22.9
-2 -6 -3 169.38 11.8
2 6 -3 227.08 18.6
-2 7 -3 91.79 8.2
-2 7 -3 71.79 13
2 7 3 91.99 13.2
2 -7 3 71.69 13.3
-2 7 3 97.49 13.8
-2 7 3 75.69 15.1
2 7 -3 78.29 13.3
-2 8 -3 169.38 12.1
-2 8 -3 166.48 21.9
2 8 3 142.89 18
2 8 3 173.58 24.1
-2 8 3 168.68 16
-2 8 3 170.48 23.8
2 8 -3 156.98 21.1
2 9 3 151.58 19.3
-2 9 -3 153.18 11.8
2 9 3 169.98 25.7
-2 9 -3 164.18 24.2
-2 9 3 147.59 24.8
2 9 -3 154.28 21.9
-2 9 3 172.28 20.2
-2 10 -3 9.9 8.2
2 10 3 17.5 7.7
2 10 3 9.3 8.2
2 10 -3 19.9 10
-2 10 3 -1.8 5.3
-2 11 -3 27.8 11.6
2 11 3 68.09 19.2
2 11 -3 37.7 13
-2 11 3 25.6 13.2
2 12 3 5.8 6.4
2 12 3 -2.4 8.4
-2 12 -3 -1.8 6.9
-2 12 3 1.2 8.5
2 12 -3 -1.2 6.9
2 13 3 31.8 28.8
2 13 3 24.5 10.7
-2 13 -3 24.2 14
2 13 -3 31.2 16.5
-2 13 3 16 23.2
-2 14 -3 -2 12.9
2 14 3 7.3 19.8
2 14 -3 21.5 24
3 0 -3 1.6 2.5
3 0 3 0.1 2.5
-3 0 -3 2.2 3
3 -1 -3 382.56 21.7
3 1 3 359.66 23.9
-3 1 -3 383.56 23.9
-3 -1 -3 383.36 24.5
-3 1 3 382.66 21.4
3 -1 3 351.36 22.8
3 2 3 421.56 26.4
-3 2 -3 424.56 27.1
3 -2 -3 422.06 25.5
3 -2 3 437.66 24.5
-3 -2 -3 387.86 25.6
3 -2 3 399.56 23.7
-3 2 3 410.46 24.4
3 -3 -3 0.5 2.6
3 -3 -3 6.6 4.4
-3 3 -3 -1.7 2.2
3 -3 -3 1.3 2.7
3 3 3 2.8 3.8
-3 3 3 -1.8 2.6
3 -3 3 3.3 2.8
-3 -3 -3 1.1 3
3 -3 3 1.1 3
-3 4 -3 49.9 9.1
3 -4 -3 65.49 13.7
3 -4 -3 48.3 8.3
-3 4 -3 63.09 9.6
3 4 3 46.5 8.8
3 -4 -3 81.99 12.3
-3 -4 -3 47.1 8.9
-3 4 3 43.3 9
3 -4 3 67.69 11.3
3 -5 -3 150.68 13.1
3 -5 -3 135.79 18.5
3 5 3 167.28 15.5
3 -5 -3 155.38 13.5
-3 5 -3 143.99 12.7
-3 5 -3 147.69 17.5
-3 5 3 210.38 25
3 -5 3 125.09 16.4
-3 -5 -3 175.38 13.9
3 6 3 45.9 10.3
3 -6 -3 44.6 7.4
-3 6 -3 37.4 10.8
3 -6 -3 44 11.1
-3 6 -3 30.7 7.1
3 -6 -3 41.2 7
-3 -6 -3 46 7.2
3 -6 3 21.9 7.6
-3 6 3 47.6 11.7
3 7 3 1.6 3.7
-3 7 -3 7.3 6
-3 7 -3 2.1 3.1
3 -7 -3 1.5 5.2
3 -7 3 1.2 4.1
3 7 -3 -1.1 2.2
3 7 -3 -2.1 2.6
-3 7 3 3.2 5.5
-3 8 -3 81.39 11.6
3 8 3 73.89 13.4
-3 8 -3 98.09 17.9
3 8 -3 143.99 19.9
3 8 -3 89.39 12
-3 9 -3 299.67 28
3 9 3 297.07 24.7
3 9 3 272.27 49.5
-3 9 -3 309.77 21
3 9 -3 306.47 27.4
3 9 -3 295.77 20.2
3 -9 3 350.06 37.3
-3 10 -3 -0.7 4.9
-3 10 -3 3.7 3.5
3 10 3 -0.4 3.6
3 10 3 3.4 6.8
-3 10 3 -1.3 5.2
3 10 -3 -4.6 3.8
3 10 -3 2.2 3.5
-3 11 -3 28.6 12.8
3 11 3 38.8 11.4
3 11 3 65.99 19.3
3 11 -3 65.99 17.1
-3 11 3 64.69 18.9
3 11 -3 52.39 9.5
3 12 3 88.49 17.3
-3 12 -3 60.89 19.3
3 12 3 122.29 27.1
3 12 -3 118.89 24.6
-3 12 3 48.3 17.5
3 13 3 9.3 9.5
3 13 3 27.8 22
-3 13 -3 6.5 12.3
3 13 -3 18.1 14
-3 13 3 14.8 14.6
3 14 3 9.3 28.9
-3 14 -3 36 20.5
-3 14 3 13.1 18.7
4 0 3 1.7 3.6
-4 0 -3 -0.3 3.2
4 0 -3 -1.6 2.7
4 -1 -3 1590.24 72.19
4 1 3 1464.75 70.59
4 -1 -3 1445.56 66.49
-4 1 -3 1463.85 70.39
4 -1 3 1540.25 70.39
-4 -1 -3 1453.15 70.89
-4 2 -3 91.79 12.6
4 -2 -3 80.49 11.6
4 -2 -3 106.89 15.6
4 2 3 106.09 14.9
-4 2 3 92.79 12
4 -2 3 101.29 14.2
4 -2 3 105.99 13.1
-4 -2 -3 132.19 17.3
-4 3 -3 1857.41 83.59
4 -3 -3 1799.22 84.29
4 -3 -3 1764.12 82.59
4 3 3 1793.82 85.49
4 -3 -3 1851.71 83.89
4 -3 3 1864.31 81.29
-4 -3 -3 1768.22 84.09
4 -3 3 1828.82 82.79
-4 3 3 1967.9 83.99
4 -4 -3 405.46 29.1
4 -4 -3 432.26 27.5
4 4 3 427.16 29.1
-4 4 -3 423.16 27.5
4 -4 -3 427.16 28.1
-4 4 3 470.15 30.3
4 -4 3 406.96 28.9
4 -4 3 467.35 25
-4 -4 -3 394.86 27.4
4 -5 -3 16 5.8
-4 5 -3 10 5.9
4 -5 -3 19.4 5.8
4 5 3 23 7.4
-4 5 -3 20.7 6.6
4 -5 -3 8.2 6.1
4 -5 3 16 6.6
-4 5 3 21.5 7.5
4 -6 -3 96.19 17
4 -6 -3 101.09 13.2
-4 6 -3 96.89 13.9
4 6 3 108.79 16.1
4 -6 -3 116.59 11.7
-4 6 -3 105.49 15.7
-4 6 3 116.19 18.6
4 6 -3 115.49 15.1
-4 -6 -3 119.29 14.2
4 -6 3 100.49 15.9
-4 7 -3 69.99 12.1
4 -7 -3 60.29 13.7
4 7 3 77.69 13.7
4 -7 -3 73.09 8.9
-4 7 -3 100.69 16.2
4 7 -3 63.89 11.4
-4 7 3 67.99 14.8
4 -7 3 76.49 15.3
-4 8 -3 10.2 7
4 8 3 11.6 7
4 -8 -3 3.1 6.6
-4 8 -3 5.2 3.8
4 8 -3 8.9 5.4
4 -8 3 18.7 8.5
4 9 3 216.08 21.6
-4 9 -3 218.08 18.9
-4 9 -3 250.47 30.4
4 -9 3 215.98 28.4
4 9 -3 220.88 27.9
4 9 -3 206.78 18.3
4 10 3 32.8 11
4 10 3 41.4 14.4
-4 10 -3 18.1 6.8
-4 10 -3 18.8 10.9
4 -10 3 36.1 12.4
4 10 -3 8.4 7.7
4 10 -3 28 8.2
-4 10 3 6.5 7.7
4 11 3 128.09 20.8
-4 11 -3 89.19 19.9
4 11 3 93.19 22.1
4 11 -3 95.29 20
4 11 -3 103.99 15.5
4 12 3 1.5 11
-4 12 -3 11 11
4 12 3 4.9 7.9
-4 12 3 3.4 14.3
4 12 -3 3.9 5.8
4 12 -3 8.4 10.3
-4 13 -3 8.1 13
4 13 3 6.9 13.7
4 13 3 1.4 8.3
4 13 -3 7.8 6.7
4 13 -3 7 11.9
-4 13 3 -3.9 11.5
-4 14 -3 17.8 18.6
4 14 3 12.8 21.4
4 14 -3 12.5 16.5
5 0 3 -2.4 2.2
5 0 -3 -0.9 3.8
-5 0 -3 -1.4 2.3
-5 1 -3 290.07 23
5 -1 -3 278.17 22.8
5 1 3 258.67 22
5 -1 -3 214.88 18.1
5 1 -3 255.07 22.8
5 -1 3 255.77 21.2
5 -2 -3 1937.41 92.39
5 -2 -3 2055.69 89.69
5 2 3 1890.41 92.29
-5 2 -3 1949.9 91.89
-5 -2 -3 1946.01 92.79
5 2 -3 2123.39 94.49
5 -2 3 1944.71 90.49
-5 3 -3 -1 3
5 -3 -3 4.9 4.4
5 -3 -3 1.7 3.8
5 3 3 8.3 6
-5 -3 -3 2.6 4.2
5 -3 3 0.1 3.3
5 3 -3 0.8 3.7
-5 3 3 7.1 4.8
5 -3 3 2.9 3.5
-5 4 -3 15.4 6.5
5 -4 -3 16.4 5.9
5 -4 -3 15.1 6.2
5 4 3 16.7 6.5
5 -4 -3 21.9 7.5
5 -4 3 26 7.7
-5 -4 -3 25.5 7.7
-5 4 3 13.7 6.6
5 -4 3 17.3 5.5
5 4 -3 21 7.1
5 5 3 2.5 3.4
-5 5 -3 2.2 3.5
5 -5 -3 -2.9 1.8
5 -5 -3 -1.2 3.4
5 -5 -3 2.2 3.3
5 -5 3 0.8 2.1
5 -5 3 -3.3 2.7
-5 -5 -3 -2.3 1.8
5 5 -3 4.6 4.3
-5 5 3 5.6 5.4
-5 6 -3 82.09 14
5 -6 -3 123.39 19.2
5 6 3 156.98 22.5
5 -6 -3 99.19 13.8
5 -6 -3 91.99 13.9
-5 6 -3 97.89 16.6
-5 6 3 117.59 18.8
5 -6 3 97.99 16.8
-5 -6 -3 123.69 15.9
5 6 -3 95.49 15.4
5 -7 -3 2.2 3.3
5 -7 -3 6.8 3.8
5 -7 -3 -3.4 4.2
-5 7 -3 2.4 3.8
5 7 3 -2.5 3.4
-5 7 -3 0.9 4.6
-5 7 3 0.6 8.1
5 7 -3 4.7 4.5
5 -7 3 3.3 5.4
5 8 3 596.74 39.3
-5 8 -3 501.25 38.6
-5 8 -3 535.75 35.3
5 -8 -3 464.05 39.5
5 8 -3 518.75 34.5
5 -8 3 498.35 39.1
-5 9 -3 1.9 4.1
5 -9 -3 10.2 8.8
5 9 3 -1 4.2
-5 9 -3 -1.8 10.3
5 -9 3 5.7 6.8
-5 9 3 -1.2 7.4
5 9 -3 3.7 5
-5 10 -3 151.88 20.7
-5 10 -3 165.48 26.7
5 10 3 156.48 23.2
-5 10 3 150.38 26.9
5 10 -3 119.39 18.7
5 -10 3 159.68 26.1
5 11 3 65.99 21.4
-5 11 -3 62.29 18.4
5 11 3 133.69 23.9
5 11 -3 102.99 16.9
5 11 -3 86.39 19.9
-5 11 3 120.89 26.2
5 12 3 183.08 33.7
-5 12 -3 183.68 31.3
5 12 -3 222.78 25.5
5 12 -3 241.08 35
-5 12 3 156.38 31.1
5 13 3 87.89 20.6
5 13 3 50.19 23.5
-5 13 -3 67.89 28.2
-5 13 3 63.29 24.1
5 13 -3 59.89 20.8
-5 14 -3 18.7 35.1
5 14 -3 18.9 18.7
6 0 3 -0.9 3
-6 0 -3 -0.6 3.4
6 0 -3 -0.9 3.2
6 -1 -3 700.63 40.1
6 -1 -3 653.43 42.9
6 1 3 657.93 42.6
-6 1 -3 675.43 43.6
6 -1 3 764.82 43.7
-6 -1 -3 705.43 44.3
6 1 -3 704.03 43.7
6 2 3 3.4 4.4
6 -2 -3 6.5 4.9
-6 2 -3 1 3.2
6 -2 3 7 5.6
-6 -2 -3 8.7 6.8
6 2 -3 0.8 4.4
6 -3 -3 208.48 20.8
6 3 3 176.28 22.6
6 -3 -3 220.18 24.5
-6 3 -3 184.18 24.3
-6 -3 -3 214.08 21.4
6 -3 3 174.08 20.7
6 -3 3 221.68 19.8
6 3 -3 236.48 28.2
6 -4 -3 -2.3 2.3
-6 4 -3 -0.3 2.9
6 -4 -3 3 4.7
6 -4 -3 3.4 4.5
6 4 3 3 4.8
-6 4 3 -2.9 2.4
6 4 -3 0.7 3.1
6 -4 3 5.6 4.6
-6 -4 -3 -1.5 3.1
6 -4 3 0.8 4.7
6 5 3 7.3 6.2
6 -5 -3 -1.4 2.4
6 -5 -3 5.8 5
6 -5 -3 -2.1 3.3
6 5 -3 7.8 6
-6 5 3 2.4 5
-6 -5 -3 7.4 5.3
6 -5 3 -4 3
6 -5 3 -0.9 2.5
6 -6 -3 401.56 28.2
-6 6 -3 377.36 30.4
6 -6 -3 403.86 33.1
6 6 3 412.96 32.5
6 -6 -3 360.36 27.7
6 6 -3 405.96 31
-6 -6 -3 377.96 27.8
6 -6 3 387.36 23.4
-6 6 3 409.66 32.5
6 -6 3 488.15 35
-6 7 -3 496.25 36
6 -7 -3 510.95 31.7
6 7 3 469.15 37
6 -7 -3 493.35 39
6 -7 -3 485.55 30.6
6 -7 3 570.24 40.5
6 7 -3 486.65 35.3
-6 8 -3 99.59 19.4
6 8 3 137.99 24
-6 8 -3 92.09 16.7
6 -8 -3 138.69 23.9
6 -8 -3 103.99 12.5
6 -8 3 114.99 20.6
6 8 -3 106.79 18.7
-6 9 -3 119.49 22.6
-6 9 -3 104.19 18.7
6 -9 -3 115.29 23.6
6 9 3 76.39 18.2
6 -9 3 101.59 31
-6 10 -3 19.6 11.5
6 10 3 11.9 8.8
6 -10 -3 26.5 12
-6 10 -3 26.4 9.7
6 10 -3 12.2 9.7
-6 10 3 27.9 13.1
6 10 -3 4.8 6.4
6 -10 3 29.4 11.9
-6 11 -3 -0.7 8.9
6 -11 3 -5.1 5.3
6 11 -3 6.3 7.9
6 11 -3 2.9 7.9
-6 11 3 5.8 11.3
-6 12 -3 -0.2 9.8
6 12 3 -3 7.9
6 12 3 2.4 12.5
6 12 -3 0.6 11.4
6 12 -3 4 7.7
-6 12 3 1.1 11.6
-6 13 -3 36.3 19.8
6 13 3 28.1 21.5
6 13 -3 20.6 16.4
6 14 -3 6.1 18.1
7 0 3 -0.2 3.5
-7 0 -3 -4.3 2.7
7 0 -3 -1.4 2
7 -1 -3 166.28 20.1
7 1 3 165.38 21
-7 -1 -3 226.38 29.6
7 -1 3 224.58 26.9
7 1 -3 223.48 29
7 2 3 14.8 7.8
-7 2 -3 4.6 5
7 -2 -3 11.5 6.6
7 -2 -3 13 6.3
-7 -2 -3 7.5 5.4
7 2 -3 15.9 7
7 -2 3 8.9 6
-7 3 -3 774.52 49.1
7 3 3 682.93 47.4
7 -3 -3 787.32 46.3
7 -3 -3 740.73 48
7 -3 3 790.62 46.4
7 3 -3 729.83 48
-7 -3 -3 761.42 48.4
7 -3 3 739.23 45.9
7 4 3 127.49 20.2
7 -4 -3 83.39 19.2
7 -4 -3 96.89 17.2
-7 4 -3 122.09 20.7
7 -4 3 99.49 16.2
-7 -4 -3 72.69 14.4
7 -4 3 104.39 17.1
7 4 -3 139.09 22.3
-7 5 -3 126.99 19.8
7 -5 -3 155.48 22.3
7 5 3 134.99 21.5
7 -5 -3 114.09 18.1
7 -5 -3 125.79 18.3
7 5 -3 198.68 27.2
-7 -5 -3 144.59 20.6
7 -5 3 125.89 20.3
-7 5 3 136.49 20.3
7 -5 3 152.68 18.8
7 -6 -3 146.29 22.4
7 -6 -3 106.39 17.3
-7 6 -3 111.69 19
7 -6 -3 135.29 19.6
7 6 3 197.18 38.9
-7 -6 -3 120.19 18.2
7 6 -3 141.99 23.3
7 -6 3 134.99 16.8
7 -6 3 154.08 22.3
-7 6 3 101.29 18.8
7 -7 -3 246.58 31.6
7 -7 -3 247.08 21.7
7 -7 -3 267.47 22.9
7 7 3 257.67 31.7
-7 7 -3 236.78 30.6
7 -7 3 269.97 17.3
7 7 -3 266.57 39.6
7 -7 3 328.57 36.4
7 -8 -3 19.1 6.5
7 -8 -3 35.1 12.5
-7 8 -3 5.3 6
7 -8 -3 30.2 7.5
7 8 3 43.5 13.6
7 8 -3 4.1 5.9
7 -8 3 15.3 6.9
7 9 3 46.9 14.1
-7 9 -3 71.69 16.4
7 -9 -3 79.69 19.2
-7 9 3 67.09 18.3
7 9 -3 93.19 18.5
7 -9 3 93.89 20.9
-7 10 -3 15.8 9.2
7 -10 -3 -1.2 5.7
-7 10 3 17 11.9
7 10 -3 8.3 7.9
7 -10 3 1.1 6.3
7 -11 -3 98.49 24.5
7 11 3 68.29 19
7 -11 3 62.89 18.9
7 11 -3 59.89 16.8
-7 11 3 68.69 20.6
7 11 -3 55.79 17.6
7 12 3 5.1 13.1
7 12 3 6.8 13.8
7 -12 3 21.8 14.1
7 12 -3 23.1 15.6
7 12 -3 3.3 9.4
-7 12 3 7 15.1
7 13 3 1.5 18.4
-8 0 -3 2.6 4.5
8 0 3 1.3 4.7
8 0 -3 2.3 4
8 1 3 226.78 30.5
8 -1 -3 123.69 18
8 -1 -3 168.58 24.3
-8 1 -3 130.39 23
8 -1 3 190.18 26.5
-8 -1 -3 204.88 28.8
8 1 -3 131.99 22.1
-8 2 -3 0.3 3.7
8 2 3 -3.6 2.5
8 -2 -3 0.1 4.8
8 -2 -3 -2.2 3.3
8 2 -3 -1.2 3.7
-8 -2 -3 4.5 6.1
8 -2 3 -1.9 2.9
8 -3 -3 37.5 10.7
8 3 3 45.6 13.5
-8 3 -3 20.5 8.9
8 -3 -3 27.8 10.4
-8 -3 -3 47 13.2
8 -3 3 32.3 9.6
8 -3 3 57.69 12.9
8 3 -3 45.4 13.7
8 -4 -3 48.9 12.2
8 -4 -3 58.29 13.2
8 4 3 41.7 11.9
-8 4 -3 66.19 15.5
8 -4 3 54.69 14.8
-8 -4 -3 57.39 12.9
8 4 -3 53.19 15
8 -4 3 61.29 14.3
8 -5 -3 -0.6 4.7
-8 5 -3 10.6 7.8
8 5 3 -2.2 3.8
8 -5 -3 2.5 4.5
8 -5 -3 2.2 4.6
-8 -5 -3 2.7 4.8
8 -5 3 2.9 6
8 -5 3 -2.8 2.6
8 -6 -3 280.57 34.1
8 6 3 349.67 32.8
-8 6 -3 249.08 31.8
8 -6 -3 289.07 27.1
8 -6 -3 315.47 26.9
-8 -6 -3 296.37 27.2
8 -6 3 288.07 33.5
8 6 -3 352.06 31.8
8 -6 3 290.87 24
8 7 3 13.9 9.2
8 -7 -3 7 6.6
8 -7 -3 33.4 9.7
-8 7 -3 22.2 9.9
-8 7 3 -0.2 4.6
8 -7 3 17 9.6
8 7 -3 10.1 7.6
8 -7 3 13.9 5.6
8 8 3 347.27 34.6
8 -8 -3 370.96 42.6
8 -8 -3 354.26 26.2
-8 8 -3 331.27 40.3
8 -8 -3 314.57 25.4
-8 8 3 350.86 40.4
8 8 -3 350.16 42.1
8 -8 3 294.67 37
8 -9 -3 -0.6 2.7
8 -9 -3 4.6 9.4
-8 9 -3 -1 4
8 -9 -3 -1.5 1.9
8 9 3 0.5 8.7
8 9 -3 -2.7 5.3
-8 9 3 13.7 10.5
8 -9 3 -5.3 4.2
8 -10 -3 62.99 19
8 10 3 31.9 14.9
-8 10 -3 24.6 11.9
-8 10 3 26.3 15.1
8 -10 3 41.6 15.6
8 10 -3 63.49 21.3
8 11 3 30.3 17.5
8 -11 -3 56.79 19.7
8 -11 3 48.3 17.2
8 11 -3 31.5 14.6
-8 11 3 36.9 18.5
8 12 3 3.1 12.4
8 -12 3 8.5 11.4
8 12 -3 9.3 13.9
8 12 -3 10.2 13.9
8 13 -3 14.2 19.1
9 0 -3 0.5 4.9
-9 0 -3 -3.4 2.7
9 0 3 3.6 6.4
9 -1 -3 48.9 14
-9 1 -3 29.4 10.7
9 -1 -3 35.9 10.5
9 1 3 8.6 7.5
9 -1 3 36.4 12.2
-9 -1 -3 68.79 18.3
9 1 -3 30.8 11.4
-9 2 -3 76.89 19.1
9 -2 -3 88.69 16
9 2 3 35.9 12
9 -2 -3 91.59 19.7
9 -2 3 67.09 16.3
9 2 -3 51.09 14.4
-9 -2 -3 34.8 10.7
-9 3 -3 124.49 25.1
9 -3 -3 137.09 23.1
9 -3 -3 124.49 20
-9 -3 -3 107.69 22.1
9 -3 3 157.98 24.3
9 -3 3 127.19 21
9 -4 -3 65.79 16.2
9 -4 -3 97.99 20.9
-9 4 -3 47.8 14.5
-9 -4 -3 38.7 12.4
9 -4 3 71.49 16.3
9 4 -3 54.89 15.6
9 -4 3 64.09 15.1
-9 5 -3 110.89 22.2
9 -5 -3 109.09 19.9
9 -5 -3 90.19 18.7
9 5 3 99.29 22.3
-9 -5 -3 88.49 17.8
9 -5 3 109.79 20
9 5 -3 79.89 18.3
9 -6 -3 41.1 12.3
9 -6 -3 43.8 13.2
9 6 3 42.1 14.1
-9 6 -3 30.7 11.4
9 -6 3 41.4 13.4
9 6 -3 39.4 14.2
-9 -6 -3 55.99 14.6
9 -6 3 52.39 13.2
-9 7 -3 -2.6 3.7
9 -7 -3 -3.1 3.4
9 -7 -3 3.2 6.3
9 7 3 -2.9 5.4
9 -7 -3 1.2 4.4
9 -7 3 -1.7 3.1
9 -7 3 -3.8 4
9 7 -3 0.9 6.3
9 8 3 2.7 7.9
9 -8 -3 1.3 4.8
9 -8 -3 10.8 7
9 -8 -3 13.7 9.6
-9 8 -3 -0.6 4.2
9 -8 3 -1.5 5.5
9 -8 3 0.3 2.9
9 8 -3 -3.2 5.3
9 -9 -3 4.3 4.6
-9 9 -3 6.5 7.4
9 -9 -3 17.7 11.1
9 9 3 9.8 10.8
9 -9 -3 11.7 6.2
9 -9 3 22.4 12.3
9 9 -3 14.1 11.5
9 -10 -3 46.3 17.3
-9 10 -3 22.5 12.5
9 10 -3 68.79 19.8
9 -10 3 34.6 14.7
9 11 3 9.5 13.6
9 -11 -3 21.9 14.6
9 -11 3 22 16.5
9 11 -3 3.9 13.9
-9 11 3 13.6 15.2
9 -12 -3 -3.2 7.6
9 -12 3 -4.8 7.9
10 0 -3 1.5 4.5
-10 0 -3 -0.5 5.1
10 0 3 -0.5 5.4
10 0 -3 1.8 4.8
10 -1 -3 177.48 25
10 -1 -3 137.69 40.2
-10 1 -3 213.98 34
10 1 3 179.28 28.7
10 1 -3 147.59 24.1
10 -1 3 195.98 27.3
-10 -1 -3 97.09 19.9
-10 2 -3 0.4 4.7
10 -2 -3 -3.6 4.5
10 -2 -3 34.6 14.3
10 2 3 7.3 9.4
10 -2 3 6.6 7
10 -2 3 5.9 7.6
-10 -2 -3 4.5 6
10 -3 -3 90.59 22.3
10 -3 -3 115.69 20.6
-10 3 -3 88.19 18
10 -3 3 67.19 16.1
10 -3 3 163.28 27.4
-10 -3 -3 110.49 22.9
10 -4 -3 109.09 21.4
10 -4 -3 209.08 29
-10 4 -3 203.78 32.3
10 4 -3 220.28 33.8
-10 -4 -3 188.38 27.5
10 -4 3 187.28 27.2
10 -4 3 200.78 26.8
-10 5 -3 134.69 26.5
10 -5 -3 90.89 23.2
10 -5 -3 75.59 18.3
10 5 3 123.99 25.1
10 -5 3 77.09 16.5
10 5 -3 75.89 18.7
-10 -5 -3 116.59 21.1
10 -5 3 144.49 24
-10 6 -3 -0.6 4.9
10 -6 -3 3.5 5.3
10 -6 -3 0 5
10 -6 -3 -1.6 4.5
10 -6 3 2.6 7
10 6 -3 3.7 7.1
-10 -6 -3 11.7 7.8
-10 7 -3 -1.4 5.4
10 -7 -3 25.2 10.4
10 7 3 14.1 11.7
10 -7 -3 22.2 11
10 -7 -3 29.2 13.1
10 -7 3 14 10.6
10 -7 3 18 8.7
10 7 -3 2.5 7.7
10 -8 -3 8.2 6.8
-10 8 -3 1.2 6.5
10 -8 -3 -0.5 5.1
10 -8 -3 4.3 7.6
10 8 3 10.7 12
10 -8 3 9.2 5
10 -8 3 -1.2 3.2
10 -8 3 3.8 7
10 8 -3 -4.7 7
-10 9 -3 28.2 14.2
10 9 3 14.7 15.1
10 -9 -3 21.4 13.1
10 -9 -3 29.6 9.6
10 -9 -3 44.1 11.2
10 9 -3 26.3 14.5
10 -9 3 30 15.1
-10 10 -3 -1.4 5.8
10 10 3 6.5 13.4
10 -10 -3 4.6 15.4
10 -10 3 -3.5 6
10 10 -3 -2 11
10 -11 -3 -4.3 7.6
10 -11 3 6.2 10.4
10 -12 -3 -6.2 8.4
10 -12 3 -9.3 8.4
11 0 -3 -2.3 5.2
-11 0 -3 -1.8 4.5
-11 1 -3 1.5 6.1
11 -1 -3 -2.5 4.8
11 -1 3 24.4 11.7
-11 -1 -3 21.6 11
11 1 -3 -2.5 4.5
11 -2 -3 166.38 29.8
-11 2 -3 258.97 39.6
11 -2 -3 218.98 29.1
-11 -2 -3 174.88 28.6
-11 3 -3 7.4 8.7
11 3 3 9.2 8.2
11 -3 -3 -4 5.8
11 -3 -3 0.4 5.3
-11 -3 -3 10.2 9.1
11 -3 3 12.7 9.6
11 -3 3 20 10.8
11 -4 -3 21.5 11.2
-11 4 -3 16.7 11.2
11 -4 -3 29.5 12.4
-11 -4 -3 19.6 11.5
11 -4 3 58.29 15.2
11 -4 3 25 11.8
11 4 -3 63.29 32.6
-11 5 -3 -0.9 4.5
11 5 3 12.7 11.5
11 -5 -3 -3.6 5
11 -5 -3 7.5 8.9
-11 -5 -3 -1.3 3.9
11 -5 3 5.4 7.6
11 -5 3 -1.3 4.5
11 5 -3 2.5 7.6
11 -6 -3 417.46 37.2
11 -6 -3 530.75 44
11 -6 -3 391.16 38.6
11 6 3 456.05 54.49
-11 6 -3 460.05 44.4
11 -6 3 443.36 37.5
11 -6 3 467.65 50.49
11 6 -3 397.36 50.59
11 -7 -3 -4.1 3.2
-11 7 -3 -2 4.7
11 7 3 2.9 9.6
11 -7 -3 -3.1 5.2
11 -7 -3 -1.6 5.5
11 -7 3 1.7 7.3
11 7 -3 3.4 9.7
11 -7 3 -2.9 4.2
11 -8 -3 -1.6 4.9
11 8 3 -0.3 9.5
11 -8 -3 -2 6.5
11 -8 -3 10.4 9.6
-11 8 -3 -2.3 5.1
11 -8 3 -4.5 2.9
11 -8 3 0.5 4.6
11 8 -3 -2 10.2
11 -8 3 -1.3 6.5
11 -9 -3 0.5 5
11 -9 -3 1.5 5.9
-11 9 -3 3.4 8
11 -9 -3 5.5 13.6
11 9 3 -3.2 11
11 -9 3 -5 5.6
11 9 -3 4.7 12
11 -10 -3 89.59 25.6
11 -10 3 51.19 18.7
11 10 -3 43.3 23.3
11 -11 -3 3.7 10.7
11 -11 3 5.9 12.3
12 0 -3 -3.2 4.8
-12 0 -3 -4.3 4.4
12 0 3 -3.4 6.1
12 -1 -3 9.4 8.3
12 -1 -3 1.3 6.1
12 1 3 -2.5 6.4
-12 1 -3 10.1 10.1
-12 -1 -3 5.8 8.3
12 -1 3 -4.2 4.8
12 1 -3 4.7 9.9
12 -2 -3 -0.1 5.9
12 2 3 19.5 20.7
12 -2 -3 50.99 14.3
-12 2 -3 46.7 17.3
12 2 -3 13.8 10.4
12 -2 3 22.4 11.8
-12 -2 -3 44.8 16.2
12 3 3 129.69 26.3
12 -3 -3 128.09 23.2
-12 3 -3 98.69 22.9
12 -3 3 130.89 23.6
12 -3 3 124.99 26.2
12 3 -3 190.48 36.7
12 -4 -3 58.59 16.6
-12 4 -3 57.79 19.4
12 4 3 18.1 13.4
12 -4 3 44.6 15.1
-12 -4 -3 37.2 14.7
12 4 -3 40.9 15.4
12 -5 -3 0.6 6.6
-12 5 -3 7.1 8.6
12 5 3 3.8 9.6
12 -5 -3 -0.1 6.6
12 -5 3 -1.8 6.5
12 5 -3 3.1 9.5
-12 -5 -3 8.6 9
12 -5 3 -4.1 4.9
12 -6 -3 88.99 20.1
12 -6 -3 31.4 13.7
12 6 3 32.5 18.1
12 -6 -3 60.19 19
-12 6 -3 70.89 21.7
12 -6 3 72.29 19.7
12 -6 3 133.99 26.3
12 -7 -3 24 14
-12 7 -3 68.89 23.4
12 7 3 29.9 18.8
12 -7 -3 40.7 12.7
12 -7 -3 6.2 9.8
12 7 -3 26.9 19.1
12 -7 3 40.9 15.6
12 -7 3 55.99 15.5
12 -8 -3 9.7 10.3
12 8 3 -2.5 16.1
12 -8 -3 0.6 6.3
-12 8 -3 -4.2 5.3
12 -8 -3 0.4 8.4
12 -8 3 -5.4 5.6
12 8 -3 -0.1 13.8
12 -8 3 2.6 6
12 -8 3 -0.9 4.1
-12 9 -3 10.3 14.8
12 -9 -3 -1.2 6
12 -9 -3 -3.9 7.4
12 -9 3 0.5 9.1
12 -9 3 3.5 4.4
12 -10 -3 4 10.6
12 -10 -3 -2.9 3.9
12 -10 3 13 14.5
13 0 3 0.7 8
-13 0 -3 -2.6 5.9
13 0 -3 7.5 10
13 0 -3 -1.5 6
-13 1 -3 145.69 31.1
13 -1 -3 185.98 28.7
13 1 3 189.08 36.5
13 -1 -3 184.98 36.4
13 1 -3 123.29 23.3
-13 -1 -3 213.08 37
13 1 -3 79.19 23.5
13 -1 3 159.28 31.7
13 2 3 2 8.4
-13 2 -3 -3.5 4.7
13 -2 -3 0.7 6
13 -2 3 -3.1 6.4
13 2 -3 -1.4 8.1
13 -2 3 -2.3 4.8
-13 -2 -3 0.8 6.4
13 3 3 91.69 26.7
-13 3 -3 81.09 23.7
13 -3 -3 70.09 17.6
13 -3 -3 21.8 13.9
13 -3 3 75.89 19.2
-13 -3 -3 95.99 24.2
13 3 -3 80.49 24.3
-13 4 -3 2.1 8.8
13 -4 -3 0.7 7.8
13 -4 -3 53.29 16.5
13 4 3 29.4 19.8
13 -4 3 7.3 8.2
13 4 -3 11.3 14
-13 -4 -3 9.3 10.2
13 -5 -3 0.2 9.6
13 5 3 11.4 14.1
-13 5 -3 -4.7 5.5
13 -5 -3 7.6 9.6
13 5 -3 -3.8 9.5
13 -5 3 0.6 7.6
13 -5 3 1.8 7.2
13 -6 -3 -3.1 4
13 6 3 8.8 14
13 -6 -3 1.1 8.3
-13 6 -3 -3.9 4.9
13 -6 3 2.8 9
13 -6 3 1.9 9.2
13 6 -3 3.1 13.4
13 -7 -3 54.29 16.3
-13 7 -3 71.59 22.2
13 -7 -3 71.09 26.2
13 7 -3 19.2 23.8
13 -7 3 50.99 15.6
13 -8 -3 -1.9 5.1
-13 8 -3 2.9 8.8
13 -8 -3 1.8 7.8
13 -8 3 -1.8 4.5
13 -8 3 -0.1 8.4
13 -9 -3 -2.7 7.5
13 -9 -3 2.8 7.4
13 -9 3 11.3 12.8
13 -9 3 4.8 5.9
14 0 -3 -5 5.5
14 0 3 0 11.8
14 0 -3 -2.7 9.4
-14 0 -3 -2.5 4.8
-14 1 -3 28.3 15.4
14 -1 -3 30.9 12.7
14 -1 -3 18.9 14
14 1 3 15 17.1
-14 -1 -3 38.8 16.7
14 1 -3 46.8 15.1
14 -1 3 34.1 15.3
14 -1 3 6.1 12.3
14 1 -3 10.9 14.7
-14 2 -3 -3.5 4.9
14 2 3 -4.4 9.9
14 -2 -3 6.2 9.7
14 -2 -3 3 12.2
14 2 -3 0.7 10.2
-14 -2 -3 1.7 9.2
14 -2 3 -3.6 9.3
14 -2 3 1.1 8.3
-14 3 -3 -1.1 7.4
14 -3 -3 -0.9 6.7
14 -3 -3 -0.5 9.1
14 3 3 -0.5 10.6
14 -3 3 -1.1 7.2
14 -3 3 -5 9.9
-14 -3 -3 -2 5
14 3 -3 5.6 13.4
-14 4 -3 40.4 18.7
14 -4 -3 12.8 11.8
14 -4 -3 16.7 13.3
14 4 3 58.19 24.6
14 -4 3 34.9 18.6
14 -4 3 30.6 13.9
14 5 3 5.3 20.3
-14 5 -3 12.8 12.9
14 -5 -3 31.5 15.1
14 -5 -3 3 14
14 -5 3 -2.7 9.2
14 -6 -3 14.2 14.2
14 -6 -3 12.8 11
14 -6 -3 -2.4 13.1
-14 6 -3 5.9 9.9
14 -6 3 -5.7 5.5
14 -7 -3 7.8 8.7
-14 7 -3 13.7 12.3
14 -7 -3 9.6 12.6
14 -7 3 16.4 13.5
14 -8 -3 16.9 10.5
14 -8 -3 31.7 18.5
14 -8 3 33 12.7
14 -8 3 23.9 15.7
15 0 -3 -3.4 6.1
15 0 3 12.2 17.2
15 0 -3 -1.2 13.5
-15 0 -3 -0.7 7.1
15 -1 -3 14.2 17.3
15 -1 -3 62.89 19.7
-15 1 -3 33.2 17.2
15 1 3 29.7 19.7
-15 -1 -3 16.8 12.5
15 1 -3 36.5 16
15 1 -3 -3.1 15.2
15 -1 3 39.4 22
15 -1 3 6.8 17.3
15 -2 -3 26.5 14.4
-15 2 -3 23.6 15
15 2 3 7.1 23.6
15 -2 -3 44.1 20.8
-15 -2 -3 63.99 22.6
15 -2 3 20.5 16.7
15 2 -3 78.99 19.4
15 2 -3 49 29.3
15 -2 3 35.1 25.1
-15 3 -3 -4.4 6.2
15 -3 3 -0.9 11.8
15 -3 3 10 8.8
15 -4 -3 18.6 18.2
-15 4 -3 15 15.4
15 -4 -3 9.6 9.5
15 -4 3 32.4 20.5
15 -4 3 68.19 22
15 -5 -3 25.6 15.4
-15 5 -3 7.4 11.8
15 -5 3 0.2 9.2
-15 6 -3 -0.9 8.2
15 -6 -3 0.5 9.1
15 -6 -3 10.5 10.7
15 -6 3 0.8 9.1
15 -7 -3 -3.8 8.9
15 -7 -3 -0.9 10.1
15 -7 3 -4.3 8.8
-16 0 -3 -1.3 7.5
16 0 -3 -6.6 6.7
16 0 3 -6.2 6.8
-16 1 -3 7.5 12.6
16 -1 -3 7.6 10.9
16 -1 3 8.8 9.2
16 1 -3 -2.1 7.4
16 -1 3 -2.3 20.5
16 -2 -3 70.69 22
16 -2 -3 28.3 23.4
-16 2 -3 108.39 31.3
16 2 -3 81.59 21.9
16 -2 3 34.1 23.7
16 -2 3 47.1 20.9
-16 3 -3 66.99 26.4
16 -3 -3 87.69 24.3
16 -3 3 88.49 24.9
-16 4 -3 40.9 25
16 -4 -3 59.69 20.6
16 -4 3 16.3 14.1
16 -5 -3 -0.6 9.1
16 -5 3 8.1 12.7
17 0 3 -2.6 9.7
17 0 -3 0.1 9
17 1 3 16.4 13.5
17 -1 -3 16.4 14.1
17 1 -3 -1.3 10.1
17 -1 3 0 9.7
17 -2 -3 24.1 15.4
17 -2 3 32.2 15.8
17 2 -3 39.9 18.8
0 0 -4 6890.01 567.54
0 0 4 4742.33 365.66
0 1 4 1.9 2.8
0 -1 -4 2.3 3.1
0 1 -4 -1.1 2
0 -1 4 2.3 2.9
0 2 -4 1575.94 65.39
0 2 -4 1712.53 69.59
0 2 4 1556.84 71.79
0 -2 4 1643.74 65.29
0 -2 -4 1655.53 72.59
0 3 -4 -1 1.5
0 3 4 1.2 3.3
0 -3 -4 -3 1.8
0 -3 4 -0.6 1.8
0 3 4 0.6 2.6
0 3 -4 0.2 1.8
0 4 4 1042.1 54.29
0 -4 -4 1084.19 51.69
0 4 -4 1110.79 47
0 4 -4 1104.19 49.7
0 4 4 1110.39 53.19
0 5 4 -1.8 2
0 5 -4 -0.5 1.3
0 5 -4 2.1 2.8
0 5 4 2.2 4.1
0 -5 -4 1.9 2.8
0 6 4 33.5 8.4
0 -6 -4 31.2 5.6
0 6 4 31.9 8.9
0 6 -4 36.1 8.1
0 7 4 -1.1 2.3
0 7 -4 0 3
0 7 4 -2 3.8
0 8 4 1382.26 75.79
0 8 -4 1402.76 70.69
0 8 4 1368.06 67.59
0 9 4 -1.7 2.9
0 9 -4 -4.9 2.6
0 10 4 116.09 18.2
0 10 4 145.49 25.8
0 10 -4 171.58 24.4
0 11 -4 -3.5 4.8
0 11 4 -3.3 5.3
0 11 4 3.2 5.6
0 12 -4 -1.4 6.3
0 12 4 7.4 10.7
0 12 4 9.9 7.9
0 13 4 0.7 7.3
0 13 4 -3.1 12.9
0 13 -4 -2.9 8.1
0 14 -4 17.6 15.1
-1 0 4 534.65 26.1
1 0 -4 603.04 30.5
1 0 -4 592.44 25
1 0 4 572.24 30.4
1 -1 -4 613.14 33.8
-1 1 -4 675.43 33.8
1 1 4 620.04 34.2
1 -1 -4 637.04 30.9
-1 1 4 709.23 34.8
-1 1 4 679.73 31
-1 -1 -4 697.33 35.4
1 -1 4 723.53 33.5
1 1 -4 644.54 32.9
1 2 4 259.47 18.5
-1 2 -4 258.97 16.7
1 -2 -4 248.68 17.9
-1 2 4 268.87 17.1
1 -2 4 274.17 15.8
1 2 -4 271.47 12.4
-1 2 4 248.98 18
1 2 -4 266.87 16.4
-1 -2 -4 246.08 18.2
1 3 4 143.69 13.5
-1 3 -4 156.28 11.1
-1 3 -4 157.08 11.5
1 -3 -4 153.58 13.4
-1 3 4 149.69 13.4
-1 3 4 142.09 15.4
1 3 -4 155.38 10.1
1 -3 4 147.89 11.2
-1 -3 -4 126.49 12.7
1 4 4 2508.75 106.99
1 -4 -4 2490.05 105.59
-1 4 -4 2405.36 100.99
-1 4 -4 2530.35 103.89
-1 -4 -4 2524.25 105.89
1 -4 4 2471.95 103.99
-1 4 4 2373.56 106.29
-1 4 4 2550.84 108.69
1 4 -4 2445.46 102.29
1 -5 -4 37.7 7.4
1 5 4 19.3 6.4
-1 5 -4 21.1 5.9
-1 5 -4 23.5 5
-1 5 4 24.3 7.7
1 5 -4 28.7 6.4
-1 -5 -4 17.9 5.5
1 -5 4 25.1 6.4
-1 5 4 24.9 8.1
-1 6 -4 19.7 4
1 6 4 4 4.9
1 6 4 15.4 5.7
1 -6 -4 16.7 4.6
1 -6 -4 18.7 4.7
-1 6 -4 20.1 6.5
-1 -6 -4 18.4 4.8
1 6 -4 13.6 5.1
-1 6 4 12.8 6.4
-1 6 4 10.2 5.2
1 7 4 141.59 20.8
-1 7 -4 126.39 18.6
1 7 4 112.89 15.8
-1 7 4 124.19 18.9
1 7 -4 133.79 16.8
-1 7 4 125.29 17.3
1 8 4 84.49 16.7
-1 8 -4 86.19 14.9
1 8 4 121.89 16.5
-1 8 4 92.69 20.4
1 8 -4 87.79 14.7
-1 8 4 105.89 15.4
1 9 4 632.84 38.7
-1 9 -4 568.44 40.1
1 9 4 616.64 51.99
1 9 -4 617.14 41.2
-1 9 4 615.64 38.1
1 10 4 126.99 19.3
-1 10 -4 147.19 22.7
1 10 4 128.89 23.7
-1 10 4 139.09 25.1
1 10 -4 137.89 21.2
-1 10 4 130.39 18.7
1 11 4 94.29 21.3
1 11 4 105.89 17.5
-1 11 -4 80.99 18.2
1 11 -4 114.89 20.6
-1 11 4 119.89 18.9
-1 11 4 118.49 25.5
1 12 4 -1.7 5.3
-1 12 -4 7.1 8.6
1 12 4 5.2 10.5
-1 12 4 -1.8 5.7
1 12 -4 0.3 7
-1 12 4 -1.3 8.1
1 13 4 -3.5 6.4
1 13 4 -0.6 13.9
-1 13 -4 6.4 10.8
1 13 -4 -2.9 8.9
-1 13 4 -2.8 10.7
1 14 4 6.6 28
1 14 -4 8 13.5
-1 14 4 2.5 19.2
2 0 -4 1434.16 57.79
-2 0 -4 1386.96 64.09
2 0 4 1396.06 63.49
2 0 -4 1303.67 62.69
-2 0 4 1423.36 57.59
-2 -1 4 6101.89 438.76
2 1 4 6326.87 452.85
-2 1 -4 6336.27 431.96
2 1 -4 6333.77 443.46
-2 -1 -4 6420.16 457.45
2 -1 4 6518.55 435.56
-2 1 4 5926.91 451.55
-2 2 -4 2838.02 122.59
2 -2 -4 3006.4 122.49
2 -2 -4 2817.52 124.09
2 2 4 2962.8 125.29
-2 -2 -4 2870.71 125.19
-2 2 4 3117.39 122.79
2 -2 4 3035.7 121.79
2 -2 4 2917.61 120.29
-2 2 4 3067.19 125.09
2 3 4 100.89 13.9
-2 3 -4 93.49 11.3
2 -3 -4 80.29 11.6
2 -3 -4 102.79 13.4
-2 3 4 130.89 15.6
2 -3 4 86.09 10.2
-2 3 4 105.89 12.9
-2 -3 -4 93.49 12.9
2 -3 4 92.19 8.1
2 4 4 625.14 35.6
-2 4 -4 629.84 31.9
2 -4 -4 608.34 37.1
2 -4 -4 629.34 34.4
-2 4 -4 610.94 33.1
2 -4 4 642.74 34
-2 4 4 619.04 35.1
-2 4 4 635.44 36.5
-2 -4 -4 616.04 34.5
2 -5 -4 86.09 12.2
-2 5 -4 76.89 9.8
2 5 4 70.89 12.3
2 -5 -4 83.09 11.6
2 -5 -4 77.89 13
-2 5 -4 85.29 11.9
2 5 -4 83.39 11.5
2 -5 4 60.99 10.4
-2 5 4 65.99 12.5
-2 -5 -4 65.39 10.3
-2 5 4 90.79 13.3
2 6 4 60.29 10.8
-2 6 -4 68.99 8.9
-2 6 -4 70.59 11.8
2 -6 -4 53.89 8.6
2 -6 -4 55.99 8.7
2 -6 4 53.69 11
-2 -6 -4 78.09 10.4
-2 6 4 66.29 12.9
2 6 -4 69.79 11.4
-2 6 4 63.79 11.6
-2 7 -4 460.85 32.7
-2 7 -4 634.04 31.3
2 7 4 481.65 32.1
2 7 -4 488.75 32.1
2 -7 4 500.95 34.4
-2 7 4 458.35 35.9
-2 7 4 517.05 32.5
2 8 4 432.86 30.8
-2 8 -4 446.66 33.1
-2 8 -4 467.25 25.1
2 8 4 468.35 36.9
-2 8 4 490.25 31.8
2 8 -4 485.55 32.8
-2 9 -4 93.49 11
-2 9 -4 79.19 15.9
2 9 4 97.89 15.9
-2 9 4 108.09 16.8
2 9 -4 77.39 15.6
2 10 4 -4.7 4.7
-2 10 -4 0.2 5.1
2 10 4 10.1 7.3
-2 10 4 4.7 7.3
2 10 -4 0.2 5.4
-2 10 4 14.5 8.3
2 11 4 -4.2 5.8
-2 11 -4 -0.3 6.2
2 11 4 1.3 4.9
2 11 -4 -3.4 4.7
-2 11 4 3.3 8.1
2 12 4 -0.8 8.8
-2 12 -4 1.9 8.4
2 12 4 -1.7 5
2 12 -4 8 9.2
-2 12 4 9.3 11.8
2 13 4 -4.7 11.5
-2 13 -4 22.1 15.1
-2 13 4 18.7 14.3
2 13 -4 4 10.7
-2 14 -4 2.1 13.7
2 14 4 3.7 18.1
2 14 -4 2.3 13.4
-2 14 4 -6.3 13.9
3 0 -4 2984.1 123.69
3 0 4 3146.99 130.39
-3 0 -4 3098.69 130.89
3 -1 -4 1544.85 73.79
3 1 4 1599.44 74.89
-3 1 -4 1613.84 74.59
3 -1 -4 1593.24 70.19
-3 -1 -4 1703.13 75.89
-3 1 4 1642.94 70.29
3 -1 4 1701.73 74.09
3 -2 -4 2145.19 99.59
-3 2 -4 2269.87 99.69
3 2 4 2351.66 101.79
3 -2 -4 2368.26 98.59
-3 -2 -4 2358.96 101.89
3 -2 4 2374.26 98.39
3 -2 4 2173.08 96.39
-3 2 4 2292.97 97.89
3 3 4 148.89 14.9
3 -3 -4 146.69 14.2
3 -3 -4 160.08 17.1
-3 3 -4 127.79 12.9
3 -3 4 142.49 13
-3 -3 -4 160.28 15.2
-3 3 4 129.19 15
3 -3 4 152.88 12.4
-3 4 -4 3.9 4
3 -4 -4 -3.1 1.8
3 4 4 3.9 4.2
-3 4 -4 3.7 3
3 -4 -4 3.6 3.5
3 -4 -4 -1.7 3.4
3 -4 4 8.1 2.7
3 -4 4 1.4 3.3
-3 -4 -4 2.8 3.3
-3 4 4 1.9 3.9
3 -5 -4 3 3.6
3 -5 -4 5 5.1
3 5 4 6.5 4.6
-3 5 -4 3.2 3.3
-3 5 -4 6.7 4.6
3 -5 -4 4 3.6
3 -5 4 20.3 7.6
-3 5 4 8.6 5.8
-3 -5 -4 6 4.2
3 -6 -4 46.4 8.3
3 -6 -4 52.09 9.5
3 6 4 50.99 10.3
-3 6 -4 30.2 8.8
3 -6 -4 43.1 11.1
-3 6 -4 38 7.3
-3 -6 -4 54.19 9.3
-3 6 4 23.8 9.2
3 -6 4 39.5 9.6
3 7 4 78.49 13.9
3 -7 -4 83.69 16.3
-3 7 -4 93.89 12.3
-3 7 -4 114.09 17.2
3 -7 -4 80.19 9.8
-3 -7 -4 77.69 7.9
-3 7 4 99.09 18.4
3 7 -4 76.29 13
3 -7 4 74.79 14.3
3 8 4 579.44 39.7
-3 8 -4 704.23 43.6
-3 8 -4 679.63 35.8
3 8 -4 657.63 35.2
3 8 -4 641.94 40.8
3 -8 4 698.13 44.4
3 9 4 -2.5 4.3
3 9 4 2.8 5.1
-3 9 -4 -1.1 2.4
-3 9 -4 4.2 5.7
3 -9 4 1.7 5.7
3 9 -4 6.3 5.7
3 9 -4 3.3 3.4
3 10 4 242.08 23.7
3 10 4 230.98 34
-3 10 -4 281.47 32.2
3 10 -4 270.27 18.7
-3 10 4 283.27 37.4
3 10 -4 189.28 25.8
3 11 4 4 8.7
-3 11 -4 2.5 3.7
3 11 4 2.2 5.1
-3 11 -4 0.3 6.1
3 11 -4 -1.4 5.2
-3 11 4 -2.5 7.1
3 11 -4 -0.5 3.2
3 12 4 2.8 6.9
3 12 4 1.3 9.6
-3 12 -4 -4 6.5
3 12 -4 1.8 7.7
-3 12 4 8.3 11.4
3 13 4 -1.5 7.6
3 13 4 -3.2 10.7
-3 13 -4 -3.9 9.4
3 13 -4 1 9.4
-3 13 4 3.2 11.4
-3 14 -4 0.7 13.2
3 14 4 -3.1 16.8
3 14 -4 -2.3 12.9
4 0 4 261.47 20.6
4 0 -4 234.48 16.1
-4 0 -4 237.48 20.3
-4 1 -4 3528.45 151.38
4 -1 -4 3687.43 146.59
-4 -1 -4 3600.74 151.98
4 -1 4 3397.46 149.79
4 2 4 1.2 3.3
4 -2 -4 7.3 4.3
4 -2 -4 6 4.2
-4 2 -4 7.5 5.1
-4 2 4 7.8 4.6
-4 -2 -4 6.3 5.3
4 -2 4 -0.1 2.9
-4 3 -4 976 51.79
4 -3 -4 1007.7 52.79
4 -3 -4 1027.6 53.89
4 3 4 1024.7 54.09
4 -3 -4 988.9 52.19
4 -3 4 1010.4 50.49
-4 3 4 1022.7 51.59
-4 -3 -4 975.5 53.19
4 -3 4 1051.69 50.29
4 4 4 4.6 4.2
-4 4 -4 1.3 3.5
4 -4 -4 5.1 4.2
4 -4 -4 2.4 3.8
4 -4 -4 7 5.1
4 -4 4 -0.1 3.7
-4 -4 -4 -2.6 2.1
4 -4 4 4.1 3.3
-4 4 4 9.4 5.2
4 -5 -4 15.2 7.3
4 5 4 23.4 7.8
4 -5 -4 18 6.3
-4 5 -4 23.4 6.5
4 -5 -4 8.1 4.8
4 -5 4 25.1 7.6
-4 5 4 13.1 6.9
-4 -5 -4 14.2 6.3
4 -6 -4 110.99 14.7
4 -6 -4 142.59 17.1
4 6 4 101.19 16
-4 6 -4 120.89 17
4 -6 -4 93.09 16.4
-4 6 -4 121.69 15.8
-4 -6 -4 109.19 14.4
4 -6 4 116.59 16.8
-4 6 4 89.59 15.9
4 7 4 306.07 25.6
4 -7 -4 348.37 29.6
-4 7 -4 335.77 26.5
-4 7 -4 261.47 21.1
4 -7 -4 266.57 19.5
4 -7 -4 281.77 19.5
4 7 -4 287.67 21.8
-4 -7 -4 279.87 19.2
4 -7 4 291.87 25.4
-4 7 4 249.88 30
-4 8 -4 122.49 16.6
-4 8 -4 139.09 21.7
4 8 4 165.78 22.6
4 -8 -4 157.38 24.6
4 8 -4 146.39 18
4 -8 4 129.19 20.4
4 8 -4 128.69 19
-4 9 -4 1503.95 80.79
-4 9 -4 1471.35 72.19
4 9 -4 1499.95 71.79
4 -9 4 1551.84 82.79
4 9 -4 1477.85 78.29
-4 10 -4 5.2 8
-4 10 -4 -1.8 2.3
4 10 4 1.7 5.9
4 10 4 8.5 7.5
4 10 -4 0.4 5.6
-4 10 4 -2.3 4.7
4 10 -4 -0.1 3.2
4 -10 4 0.5 6.4
-4 11 -4 5.1 9.5
4 11 4 6 8.2
-4 11 -4 3.2 4.2
4 11 4 11.7 18.9
4 11 -4 0.2 6.7
-4 11 4 22.3 13.5
4 11 -4 20.7 7.8
4 12 4 38.1 17.9
-4 12 -4 31.5 16.9
4 12 4 73.79 26.9
-4 12 4 52.39 19.1
4 12 -4 19.6 8
4 12 -4 15.8 11.5
4 13 4 29.4 14.2
-4 13 -4 18.2 15.4
4 13 4 36.3 20.5
-4 13 4 44.3 20.8
4 13 -4 20 14.4
-4 14 -4 75.89 24.7
-5 0 -4 114.09 15.7
5 0 4 191.78 23.3
5 0 -4 133.79 12.6
-5 1 -4 1197.28 62.99
5 -1 -4 1186.78 57.59
5 -1 -4 1269.97 64.39
5 1 4 1207.78 68.79
5 -1 4 1195.68 61.89
-5 2 -4 158.88 19.8
5 -2 -4 134.29 17.8
5 -2 -4 121.09 15
-5 -2 -4 146.49 19.9
5 -2 4 135.99 17.3
5 -3 -4 157.38 20.1
5 -3 -4 150.18 18.9
-5 3 -4 129.99 18.6
5 3 4 168.28 21.6
5 -3 -4 152.08 20.1
5 -3 4 163.18 15.5
5 -3 4 120.19 16.4
-5 -3 -4 144.49 20.3
-5 3 4 147.09 18.3
5 -4 -4 542.15 35.1
5 -4 -4 595.74 36.5
5 4 4 466.55 34.4
-5 4 -4 498.35 33.5
5 -4 4 543.35 33.8
5 4 -4 501.85 33.6
-5 -4 -4 469.35 38.4
-5 4 4 480.05 32.9
5 -4 4 514.25 30.7
5 -5 -4 8.2 6.4
5 -5 -4 1 3.4
5 -5 -4 6.6 4.9
-5 5 -4 4.4 4.1
5 5 4 1.6 3.8
-5 -5 -4 -0.4 3.6
5 -5 4 -0.9 1.7
-5 5 4 3.8 5
5 -5 4 2.7 4
5 5 -4 -1 2.9
5 -6 -4 380.76 27.1
5 6 4 397.56 31.2
5 -6 -4 376.96 27.6
5 -6 -4 369.26 31.2
-5 6 -4 402.06 29
-5 6 4 438.56 32.9
5 6 -4 423.66 29.6
-5 -6 -4 365.66 27.6
5 -6 4 390.96 30.4
5 7 4 141.59 21.9
-5 7 -4 111.99 18.1
5 -7 -4 132.19 18.2
5 -7 -4 139.69 22.9
5 -7 -4 151.68 17.9
-5 7 -4 137.49 19.4
5 -7 4 109.19 18.4
-5 -7 -4 132.79 19.9
5 7 -4 153.18 20.5
-5 7 4 152.48 23
5 8 4 -0.5 7.9
5 -8 -4 8.6 3.8
5 -8 -4 2.8 6.2
-5 8 -4 0.4 3.6
-5 8 -4 4.5 5.7
5 8 -4 3.9 5
5 -8 4 -3.8 3.5
5 9 4 66.49 15.1
5 -9 -4 111.29 22.1
-5 9 -4 43.5 10.6
5 9 -4 56.49 12.6
5 -9 4 55.49 15
5 9 -4 58.99 14.2
-5 10 -4 176.48 27.5
-5 10 -4 160.28 21
5 10 4 184.28 27.6
5 10 -4 121.29 18.9
5 -10 4 134.59 25.1
5 10 -4 129.59 22.1
-5 10 4 134.69 25.3
5 11 4 54.19 18.5
-5 11 -4 72.19 14.1
5 11 4 60.39 15.5
-5 11 -4 65.39 18.8
5 11 -4 73.79 14.7
-5 11 4 59.19 19.3
5 -11 4 64.39 18.3
5 11 -4 52.89 16.5
5 12 4 41.2 19.4
5 12 4 31.2 13.7
-5 12 -4 17.4 13.6
5 12 -4 24.5 13.3
-5 12 4 41.7 30.7
5 12 -4 42.1 11.4
5 13 4 1.6 14
5 13 4 10.2 12.4
-5 13 4 12.8 17.2
5 13 -4 8.9 12.4
5 14 -4 4.6 16.4
-6 0 -4 1385.86 73.59
6 0 -4 1475.65 66.89
6 0 -4 1334.27 73.09
6 0 4 1435.46 73.29
6 1 4 728.43 44.5
6 -1 -4 605.04 39.9
6 -1 -4 778.32 45.9
-6 1 -4 680.33 43.7
6 1 -4 672.73 43.9
6 2 4 514.95 35.7
6 -2 -4 501.35 31.9
-6 2 -4 444.46 33.7
6 -2 -4 426.16 33.5
6 -2 4 486.45 33.4
-6 -2 -4 514.55 36
6 2 -4 489.45 35.1
6 -3 -4 49.5 11.2
6 3 4 25.5 8.3
-6 3 -4 41.3 11.1
6 -3 4 42.9 9.7
-6 -3 -4 31.8 9.2
6 -3 4 43.8 9.3
6 3 -4 50.99 12.9
6 -4 -4 0.1 3.4
6 4 4 13.3 6.5
6 -4 -4 5.1 5.1
-6 4 -4 6.6 5.3
6 -4 -4 4.3 5.2
6 4 -4 9 6
-6 4 4 8.5 5.8
6 -4 4 5.3 4.3
-6 -4 -4 11.2 6.6
6 -4 4 1.4 5.2
6 -5 -4 235.18 22.1
6 -5 -4 229.08 21.1
6 5 4 212.28 27.2
6 -5 -4 183.68 24.3
-6 5 -4 196.08 25.5
6 5 -4 241.88 22.6
-6 5 4 250.07 28.1
6 -5 4 185.08 23.2
-6 -5 -4 213.48 26
6 -5 4 201.88 17.4
-6 6 -4 15.3 7
6 -6 -4 20.8 7.9
6 6 4 25.7 9.6
6 -6 -4 17.8 6.9
6 -6 -4 18.9 8.9
-6 6 4 16.3 8.7
6 -6 4 24.6 9.3
-6 -6 -4 3 4.4
6 -6 4 21.3 5.4
6 6 -4 22.6 8.5
6 -7 -4 524.05 34.6
6 -7 -4 535.55 34
6 -7 -4 601.44 43.3
-6 7 -4 499.45 37.2
6 -7 4 554.44 40.5
-6 -7 -4 559.14 34.6
6 7 -4 568.74 38.4
-6 7 4 486.45 41.1
6 -8 -4 368.56 34.5
-6 8 -4 335.97 29.3
6 8 4 350.06 32.1
6 -8 -4 350.36 24
6 -8 -4 377.66 24.5
6 8 -4 344.67 29.1
6 -8 4 406.16 34.3
6 9 4 -0.1 5.5
-6 9 -4 12.7 9.1
-6 9 -4 1.6 4.4
6 -9 -4 8.4 8.5
6 -9 4 20.6 12.2
-6 9 4 3.9 8
6 9 -4 5 6.4
6 -10 -4 6.4 8.4
-6 10 -4 -0.4 6.8
-6 10 -4 2.8 4.7
6 10 4 -0.5 6.8
6 10 -4 3 6.1
6 -10 4 1.9 7.4
6 10 -4 -0.5 5.9
-6 11 -4 3.2 5.3
6 11 4 -3.9 6.5
-6 11 4 1.8 10.3
6 11 -4 -4.9 6.3
6 11 -4 -2.7 5.3
6 -11 4 2.6 7
6 12 4 22 18.9
6 12 4 11.9 11.5
-6 12 -4 58.79 20.1
6 12 -4 9.6 14.2
-6 12 4 5.4 12.5
6 12 -4 15.6 9.9
-6 13 -4 6.1 15.5
6 13 4 13.4 14.5
-6 13 4 4.1 16.6
6 13 -4 4.9 12.8
7 0 -4 664.53 44.5
-7 0 -4 607.94 43.7
7 0 4 666.43 43.6
7 0 -4 608.74 36.9
-7 1 -4 1084.79 62.59
7 -1 -4 986.2 54.89
7 -1 -4 1080.19 62.49
7 1 4 1074.39 61.69
7 -1 4 1093.19 61.19
7 -2 -4 128.79 21.3
7 -2 -4 172.98 20.6
7 2 4 199.98 26.8
7 2 -4 187.68 26.5
-7 -2 -4 131.89 21.8
7 -2 4 189.18 25.5
7 3 4 7.1 5.3
-7 3 -4 7.3 7
7 -3 -4 15.2 8.3
7 -3 -4 15.7 6.6
-7 -3 -4 10.4 6.7
7 -3 4 14.1 7.3
7 3 -4 19.7 9.6
7 -3 4 22 8.2
7 4 4 4.1 5.7
7 -4 -4 -1.5 3.9
7 -4 -4 3.2 4.2
7 -4 -4 1.8 4.1
-7 4 -4 -1.7 3.1
7 -4 4 -4.5 2.8
-7 -4 -4 -4.5 1.8
7 4 -4 2 4
7 -4 4 1 4
-7 5 -4 251.57 31.5
7 5 4 209.38 27.9
7 -5 -4 222.38 21.7
7 -5 -4 219.08 28.1
-7 5 4 232.78 27.7
-7 -5 -4 190.68 25.9
7 -5 4 222.48 26.9
7 5 -4 205.88 29.4
7 -5 4 202.38 19.1
-7 6 -4 3.4 5.7
7 -6 -4 10.5 7
7 -6 -4 4 5.1
7 6 4 1.3 4.1
7 -6 -4 6.4 7.1
7 -6 4 -0.9 4.7
7 6 -4 3.3 5.1
7 -6 4 5.5 4
-7 -6 -4 1.4 4.6
-7 6 4 1.9 5.8
7 -7 -4 393.26 29.4
-7 7 -4 441.56 35
7 7 4 404.46 35.6
7 -7 -4 376.06 29.7
7 -7 -4 314.57 37.2
7 -7 4 385.86 21.9
-7 -7 -4 379.56 29.3
7 -7 4 403.96 34.4
7 7 -4 441.56 40.9
-7 8 -4 33.5 11
7 -8 -4 32.5 12.8
7 -8 -4 49.6 10.7
7 -8 -4 29.3 8.5
7 8 4 20 9.9
-7 8 4 32.9 12.8
7 8 -4 24.1 11.1
7 -8 4 38.5 13
7 9 4 49.9 15.7
-7 9 -4 104.69 19.6
7 -9 -4 82.69 11.3
7 -9 -4 78.69 19
7 -9 -4 79.29 12.3
7 9 -4 38.1 12.7
7 -9 4 80.39 19
-7 9 4 125.49 24.1
7 -10 -4 1.9 7.4
-7 10 -4 4.9 6.5
7 10 4 2.3 8.5
7 10 -4 -2.1 5.3
7 -10 4 -2.2 5.9
-7 10 4 5.2 8.9
7 11 4 46.7 16.5
-7 11 -4 34.4 12.1
7 11 -4 41.8 16.2
-7 11 4 40.7 18.2
7 -11 4 76.89 20.9
7 11 -4 31.8 14.2
7 12 4 17.8 15.3
7 12 4 -3.3 11.6
7 12 -4 -2.5 9.4
-7 12 4 10 16
7 -12 4 34.1 17.6
7 12 -4 8.4 10.2
7 13 -4 0.1 13.8
8 0 -4 185.08 22.1
-8 0 -4 223.58 30.8
8 0 -4 155.58 24.6
8 0 4 272.17 33
8 1 4 1.8 5.7
8 -1 -4 0.4 4.7
8 -1 -4 2.2 4.6
-8 1 -4 -1.5 3.7
-8 -1 -4 3.2 4.4
8 -1 4 -2.5 2.6
8 1 -4 4.1 6
-8 2 -4 157.58 24.1
8 2 4 177.08 24.7
8 -2 -4 161.98 21.5
8 -2 -4 160.38 23.4
8 -2 4 253.17 31.1
-8 -2 -4 218.48 30.8
8 2 -4 102.29 18.8
8 -3 -4 197.98 25
-8 3 -4 279.17 33.8
8 -3 -4 212.28 25.5
8 3 4 179.08 26.9
8 3 -4 137.49 21.5
-8 -3 -4 262.37 33.4
8 -3 4 258.37 28.4
8 -3 4 208.78 27.4
8 -4 -4 31.8 11.2
8 -4 -4 19.9 8.3
-8 4 -4 11.1 7.5
8 4 4 26.9 17.7
-8 -4 -4 22.1 9
8 -4 4 16 8.3
8 4 -4 2.2 4.8
8 -4 4 29 12.7
8 -5 -4 10.5 7.3
-8 5 -4 5.2 6.3
8 5 4 11.9 8.6
8 -5 -4 -0.8 5.1
8 -5 -4 3.2 5.5
8 -5 4 30.9 10.5
8 5 -4 6.3 7.6
-8 -5 -4 17.1 9.3
8 -5 4 27.5 9.4
8 -6 -4 216.48 29.7
-8 6 -4 241.18 33.6
8 -6 -4 180.78 24.9
8 6 4 233.28 34.1
8 -6 -4 213.78 28.4
8 -6 4 212.08 19.7
8 -6 4 202.98 27.7
-8 -6 -4 257.17 30.9
8 6 -4 188.88 27
8 -7 -4 57.49 15.4
-8 7 -4 33.6 11.3
8 -7 -4 43 12.5
8 -7 -4 50.29 11.9
8 7 4 45.8 14.4
-8 7 4 48.9 14.4
-8 -7 -4 41 10.9
8 7 -4 68.59 17.3
8 -7 4 55.29 10
8 -7 4 68.09 16.5
8 -8 -4 314.57 38.8
8 -8 -4 352.46 27.8
8 8 4 404.36 47.4
8 -8 -4 324.57 26.2
-8 8 -4 326.37 32.7
8 8 -4 322.17 32.3
-8 8 4 349.77 40.9
8 -8 4 299.37 37.5
-8 9 -4 0.8 4.2
8 -9 -4 -0.6 3.1
8 -9 -4 -2.8 6.6
8 9 4 2 8.1
8 -9 -4 -0.4 3.1
8 -9 4 -4.6 4.9
-8 9 4 -1.5 8.8
8 9 -4 0.9 6.8
-8 10 -4 97.19 21.4
8 -10 -4 96.49 23.3
8 10 4 66.29 19.4
8 -10 4 82.49 19.6
8 10 -4 54.49 16.9
-8 10 4 91.39 22.6
8 11 4 11.9 13.6
-8 11 -4 -1.7 5
8 -11 -4 0.7 10.5
8 11 -4 6 11.1
8 -11 4 2.6 9.9
8 11 -4 12.2 12.2
-8 11 4 7.9 12.9
8 12 4 0 22.9
-8 12 4 -5 15.5
8 12 -4 -1.9 11.8
8 -12 4 15.9 14.9
9 0 -4 280.27 24.7
-9 0 -4 324.67 31.9
9 0 -4 200.78 27.4
9 0 4 315.57 30.3
9 1 4 355.26 34
9 -1 -4 374.96 35.4
-9 1 -4 391.36 36.2
9 -1 -4 399.36 31
9 -1 4 447.36 36.7
9 1 -4 361.86 35.3
-9 -1 -4 461.65 38.6
-9 2 -4 94.49 18.1
9 -2 -4 93.69 16.7
9 -2 -4 118.09 24.2
9 -2 4 126.79 22
-9 -2 -4 98.29 19.8
-9 3 -4 506.55 42.5
9 -3 -4 484.65 37.9
9 -3 -4 549.95 43.3
9 -3 4 563.64 41.7
-9 -3 -4 513.85 42.6
9 -3 4 540.65 39.5
9 -4 -4 13.7 9.1
-9 4 -4 4 6.9
9 -4 -4 5.1 7
9 -4 4 13.5 8.5
9 -4 4 7 6.6
-9 -4 -4 1 5.3
9 4 -4 12.8 8.5
9 -5 -4 56.49 15.5
9 -5 -4 33 10.7
-9 5 -4 28.5 11.4
9 5 4 32.6 12.4
9 -5 -4 70.89 16.4
9 -5 4 54.29 15.1
9 5 -4 63.99 17.4
-9 -5 -4 48 13.7
9 -6 -4 86.89 18
-9 6 -4 65.99 17.3
9 6 4 80.49 20.6
9 -6 -4 79.59 25.2
9 -6 -4 84.09 18.1
9 6 -4 53.09 16.5
9 -6 4 79.89 18.4
9 -6 4 67.59 13.9
-9 -6 -4 95.79 19.6
-9 7 -4 33.4 12.6
9 -7 -4 7.6 8
9 -7 -4 30.1 11.6
9 7 4 54.39 21.9
9 -7 -4 30.7 10.5
9 7 -4 16.3 10.7
9 -7 4 12.5 10.1
-9 -7 -4 9.3 6.7
9 -7 4 12.2 6.5
-9 8 -4 271.27 35.8
9 8 4 307.17 44.4
9 -8 -4 308.77 39.1
9 -8 -4 306.47 27.4
9 -8 -4 304.27 26.9
9 -8 4 241.18 34.5
9 -9 -4 178.98 21.7
9 9 4 181.88 33.2
9 -9 -4 177.68 20.8
9 -9 -4 132.09 27.4
-9 9 -4 133.09 26.3
9 -9 4 185.68 30.2
9 9 -4 151.78 28.7
9 -10 -4 41.3 16
-9 10 -4 34.6 14
9 10 4 55.09 19.3
9 10 -4 45 17.2
9 -10 4 17.5 12
-9 10 4 62.29 34.2
-9 11 -4 -3.4 5.4
9 11 4 -2.5 12.2
9 -11 -4 1.2 9.5
9 11 -4 -2.6 10.5
9 -11 4 -3.1 8.7
-9 11 4 7.6 13.7
9 -12 -4 -4.5 8.3
9 -12 4 10.7 14.1
9 12 -4 -2.5 13.5
-10 0 -4 40 13.2
10 0 -4 56.69 13.7
10 0 4 31.4 17.6
10 0 -4 39.3 13.5
10 -1 -4 1151.48 63.59
10 1 4 1027.5 68.39
-10 1 -4 1114.79 71.49
10 -1 -4 1115.49 71.29
-10 -1 -4 1083.09 70.89
10 1 -4 950.6 74.09
10 -1 4 1110.59 69.29
10 -2 -4 196.98 27.2
10 -2 -4 142.09 32.3
-10 2 -4 208.58 33.5
-10 -2 -4 178.78 27.3
10 -2 4 131.79 23.3
10 -3 -4 103.89 19.5
-10 3 -4 59.89 17.8
10 -3 -4 97.09 22.8
10 -3 4 100.79 18.9
10 -3 4 122.79 24
-10 -3 -4 120.49 24.5
10 -4 -4 46 14
10 -4 -4 33.9 11.3
-10 4 -4 27.3 10.9
10 -4 4 27.4 10.9
10 -4 4 35.1 12.4
10 4 -4 50.19 17.1
-10 -4 -4 41.7 14.1
10 -5 -4 35.2 12.7
10 5 4 10.4 8.6
10 -5 -4 16.8 11.1
-10 5 -4 35.8 13.4
10 -5 -4 38.3 12.8
10 -5 4 39.9 12.7
-10 -5 -4 16.4 10.7
10 -5 4 19.3 9.8
10 5 -4 34 14.4
10 6 4 41.3 15.1
10 -6 -4 71.79 18.5
10 -6 -4 92.69 19.6
10 -6 -4 94.39 18.6
-10 6 -4 99.29 22.7
10 -6 4 144.29 28
-10 -6 -4 87.69 20
10 -6 4 108.49 21.5
10 -7 -4 81.39 18.1
-10 7 -4 71.59 18.1
10 -7 -4 55.59 16.9
10 -7 -4 90.49 18.8
10 7 4 111.89 25
10 -7 4 77.99 19
-10 -7 -4 71.79 16.2
10 7 -4 95.59 23.6
10 -7 4 74.39 14.6
10 -8 -4 25.8 12.1
10 8 4 8.3 11.5
-10 8 -4 2.3 7.5
10 -8 -4 18.7 9.9
10 -8 -4 33.5 11.4
10 -8 4 33.1 13.8
10 8 -4 9 11.8
10 -8 4 16 6.2
10 -8 4 27 7.7
-10 9 -4 187.08 30.4
10 -9 -4 223.58 26.2
10 -9 -4 271.37 39.2
10 -9 -4 209.28 21.1
10 9 4 143.29 30.3
10 -9 4 282.07 39.4
10 9 -4 229.88 37.3
10 10 4 15.8 16.3
10 -10 -4 6.5 10.8
-10 10 -4 2.3 7.1
10 10 -4 12.2 14
10 -10 4 2.9 9.5
-10 11 -4 -1.5 6.4
10 -11 -4 0.7 9.9
10 -11 4 2.3 10.3
10 -12 -4 -7.7 8.7
10 -12 4 12 13.4
11 0 -4 2.1 6.6
-11 0 -4 15.2 10.1
11 0 -4 4.5 6.4
11 -1 -4 152.58 23.4
11 1 4 169.08 32.8
-11 1 -4 232.58 37.8
-11 -1 -4 159.78 28.9
11 -1 4 137.69 24.9
11 -2 -4 56.09 14.8
-11 2 -4 50.09 17.6
11 -2 4 56.99 14.9
11 2 -4 66.29 17.9
11 -2 4 68.89 22.4
-11 -2 -4 40.7 15.5
-11 3 -4 147.49 26.5
11 -3 -4 174.18 31.1
11 3 4 179.78 33.5
11 -3 4 139.49 25
-11 -3 -4 187.08 31.6
11 -3 4 143.09 25.3
11 -4 -4 29.2 11
-11 4 -4 49.2 16.8
11 4 4 34.5 15.2
11 -4 -4 28.1 13
11 -4 4 59.09 16.4
-11 -4 -4 17.8 11.1
11 4 -4 16 11.7
11 -4 4 44.5 14.5
11 5 4 10.9 10.9
11 -5 -4 2.7 6.4
-11 5 -4 -0.7 5.1
11 -5 -4 8.4 9.5
11 5 -4 6.9 9.5
-11 -5 -4 18 9.9
11 -5 4 11.1 9.3
11 -5 4 6.3 7.7
11 6 4 58.19 20.5
11 -6 -4 71.09 19.5
11 -6 -4 48.1 15.6
11 -6 -4 104.99 22.1
-11 6 -4 115.99 27
-11 -6 -4 92.29 22.1
11 6 -4 51.29 17.5
11 -6 4 76.29 18
11 -6 4 88.89 21
11 -7 -4 -1.7 5.5
11 -7 -4 1.9 6.8
-11 7 -4 -0.7 5.3
11 -7 4 -6.4 5.2
11 7 -4 0.3 9.1
11 -7 4 0.3 5.3
11 8 4 117.99 28.7
11 -8 -4 122.29 23.8
11 -8 -4 120.69 25.2
-11 8 -4 117.89 25.5
11 -8 4 124.39 17.3
11 8 -4 109.89 26.9
11 -8 4 59.59 18.1
11 -8 4 120.39 17.7
11 -9 -4 1.6 6
-11 9 -4 -1.2 6.2
11 -9 -4 -2.9 5.2
11 9 -4 -1.1 12
11 -9 4 1.8 8.1
11 -10 -4 68.39 21.5
-11 10 -4 76.19 21.7
11 -10 4 127.09 28.5
11 -11 -4 7 11.6
11 -11 4 -1.6 9.4
12 0 4 -3 5.5
-12 0 -4 4.8 7
12 0 -4 0.5 9.6
12 -1 -4 197.28 28
-12 1 -4 189.98 31.2
12 1 4 157.98 29.7
12 -1 -4 174.98 35.4
12 1 -4 165.08 26.2
12 1 -4 166.68 43.8
-12 -1 -4 137.79 26.6
-12 2 -4 195.78 31.6
12 -2 -4 229.18 32
12 2 4 157.28 31.6
12 2 -4 281.77 44.5
12 -2 4 178.78 28.2
12 3 4 -1.4 7.5
12 -3 -4 2.8 9
12 -3 -4 -0.5 4.1
-12 3 -4 0 6.2
12 3 -4 -2.6 6.8
-12 -3 -4 3.2 7.2
12 -3 4 5.8 8.5
12 -3 4 -3.5 5
12 4 4 31.7 15.3
-12 4 -4 48.4 16.1
12 -4 -4 25.8 13.3
12 4 -4 26.6 15.2
12 -4 4 55.39 16.1
-12 -4 -4 48.7 16.3
12 5 4 4.3 10.4
12 -5 -4 2.1 8
12 -5 -4 7.4 8.7
-12 5 -4 13.5 10
-12 -5 -4 15.1 10.9
12 5 -4 -0.9 7.9
12 -5 4 6.6 8.2
12 -5 4 -2.7 5.2
12 -6 -4 -0.6 5.3
12 -6 -4 -4 6.9
12 -6 -4 1 7.4
12 6 4 -0.8 9.9
-12 6 -4 0.6 7
12 -6 4 1.6 7.6
12 -6 4 -7.5 4.8
12 6 -4 5.6 11.4
-12 -6 -4 1.6 6.6
12 7 4 92.19 25.8
12 -7 -4 150.18 25.3
12 -7 -4 141.39 27
12 -7 -4 129.69 27.8
-12 7 -4 133.49 29.6
12 7 -4 86.49 24.7
12 -7 4 151.08 29.7
12 -7 4 162.38 25.4
12 -8 -4 0.2 6.6
-12 8 -4 4.3 8.3
12 8 4 4.6 13.5
12 -8 -4 10.3 11.2
12 -8 4 1.7 5.3
12 -8 4 10.8 11.5
12 -8 4 1.9 5.2
12 -9 -4 110.99 19.6
12 -9 -4 35.8 16.3
12 -9 4 115.99 26.9
-12 10 -4 107.89 26.5
12 -10 -4 104.39 27.1
12 -10 -4 87.89 17.9
12 -10 4 45.4 18.8
13 0 -4 364.86 52.49
13 0 4 373.66 51.99
-13 0 -4 366.76 48.9
13 0 -4 343.67 39.9
13 1 4 95.09 24.1
13 -1 -4 147.29 26.3
-13 1 -4 145.79 29.8
13 -1 -4 260.27 43.7
13 1 -4 183.18 27.3
-13 -1 -4 205.28 33.2
13 1 -4 142.69 33
13 2 4 7.1 11.7
-13 2 -4 34.7 15.6
13 -2 -4 13.7 11.6
13 -2 -4 43.9 14.8
-13 -2 -4 66.29 20.2
13 2 -4 63.59 23.7
13 -2 4 16.5 12.5
13 -2 4 32.8 13.7
13 -3 -4 51.89 16.6
-13 3 -4 47.3 18.6
13 3 4 54.99 20.7
13 -3 -4 41.3 22.8
13 -3 4 18.3 12
-13 -3 -4 76.09 21.7
-13 4 -4 12.7 11.3
13 -4 -4 -0.6 6.2
13 -4 -4 15.3 12.9
13 4 4 -2 10
13 -4 4 16.7 11.6
13 4 -4 12.4 14.3
-13 -4 -4 6.7 7.1
-13 5 -4 5.3 9.3
13 5 4 16 16.8
13 -5 -4 -1.1 8
13 -5 -4 19.1 12.1
13 -5 4 16.5 12.2
13 -5 4 12.4 10.7
13 5 -4 21.3 17.4
-13 -5 -4 46.2 17
13 -6 -4 113.09 24
13 -6 -4 93.69 23.4
-13 6 -4 95.69 25
13 -6 4 109.29 23.8
13 -6 4 77.59 20.6
-13 7 -4 9.3 13.1
13 -7 -4 -4 9.1
13 -7 -4 19.4 14
13 -7 -4 30.9 12.5
13 -7 4 20.5 13.3
13 -7 4 13 13
13 -8 -4 10.2 9.8
13 -8 -4 -0.2 9.2
-13 8 -4 4.1 8.4
13 -8 4 14.8 12.9
13 -8 4 3.4 6.2
13 -9 -4 0.7 6.8
-13 9 -4 8 11.8
13 -9 -4 8.8 13.1
13 -9 4 8.6 11.9
13 -9 4 12.4 6.7
-14 0 -4 288.37 43.6
14 0 4 206.28 41.1
14 0 -4 303.17 38.8
-14 1 -4 47.8 18.2
14 -1 -4 46.4 15.5
14 -1 -4 25.4 17.3
14 1 -4 66.29 18.5
14 1 -4 31.4 19.4
-14 -1 -4 21.2 13.8
14 -1 4 21.6 12.9
14 -1 4 24.9 18
14 -2 -4 17.9 12.2
14 -2 -4 33.8 20.6
14 2 4 16.2 16.8
-14 2 -4 14.5 12.9
14 -2 4 15 11.2
-14 -2 -4 25.5 16
14 -2 4 8.2 13.1
14 2 -4 16.5 16.6
14 2 -4 17.1 11.5
14 -3 -4 12.5 10.3
14 3 4 -3.1 11.1
14 -3 -4 1.1 10.6
-14 3 -4 7 11.1
14 3 -4 4.4 12.4
-14 -3 -4 1.8 8.4
14 -3 4 -6.4 5.4
14 -3 4 -3.2 9.8
-14 4 -4 -5.4 5.7
14 -4 -4 -2.5 6.5
14 -4 -4 -1.9 9.7
14 -4 4 -0.6 9.5
-14 -4 -4 0.2 7.4
14 4 -4 3.3 17.1
14 -4 4 -4.2 5.7
14 -5 -4 5.7 10.2
14 -5 -4 4.6 12.9
-14 5 -4 5.8 12.6
14 -5 4 4.3 11.3
14 -5 4 -4.2 7.2
-14 6 -4 48.2 19.5
14 -6 -4 81.49 21.9
14 -6 -4 66.49 20.6
14 -6 4 74.09 21.8
-14 7 -4 2.7 9.1
14 -7 -4 -1.2 6.2
14 -7 -4 -1.7 7.6
14 -7 4 -5.4 7.2
-14 8 -4 26.6 18.2
14 -8 -4 26.5 12.8
14 -8 -4 7.6 11.5
14 -8 4 28.9 17
14 -8 4 18.5 10.2
15 0 -4 -3.2 13.5
15 0 -4 -0.4 6.3
-15 0 -4 10 9.9
15 0 4 7.5 14.3
15 -1 -4 16.6 16.7
15 1 4 74.19 28.5
-15 1 -4 17.2 13.3
15 -1 -4 78.39 20.7
15 1 -4 67.19 19.4
-15 -1 -4 46.2 20
15 -1 4 9.1 14.9
15 1 -4 53.29 31.9
15 -1 4 86.49 30.1
15 2 4 18 18.2
15 -2 -4 62.69 19.8
-15 2 -4 111.59 30.8
15 -2 -4 47.2 24.9
15 -2 4 53.29 19.5
15 2 -4 73.69 19.7
-15 -2 -4 33.1 15.5
15 -3 -4 -5.6 14.3
-15 3 -4 -1.4 7
15 -3 4 -3.3 18.1
15 -3 4 7.1 10.6
-15 -3 -4 13.1 13.7
-15 4 -4 140.29 33.9
15 -4 -4 128.39 27.9
15 -4 4 134.09 28.5
15 -4 4 93.89 37.6
-15 5 -4 11.3 12.2
15 -5 -4 2.8 9.2
15 -5 4 16 13.2
-15 6 -4 0.9 11.7
15 -6 -4 -4.6 8.8
15 -6 -4 4.2 9.5
15 -6 4 -3.7 8.9
15 -7 -4 22.5 16.1
-15 7 -4 46.4 21.1
15 -7 -4 43.3 16.6
15 -7 4 35 19.4
-16 0 -4 78.19 33.8
16 0 -4 60.89 19.4
16 0 4 27.8 15.7
16 -1 -4 12.9 13.2
-16 1 -4 8.8 16.3
16 1 -4 3.1 9.5
16 -1 4 9.7 13.1
16 -1 4 3.6 19.4
16 -2 -4 4.5 9.1
-16 2 -4 -5 7.7
-16 -2 -4 9.8 13.2
16 2 -4 -6 8.2
16 -2 4 10 12.8
16 -2 4 -0.5 19.3
16 -3 -4 8 12.2
-16 3 -4 24.2 21.2
16 -3 4 58.89 20.5
16 3 -4 55.69 18.5
16 -4 -4 2.8 10
16 -4 4 -6.4 9.4
-16 5 -4 -4.5 9.6
16 -5 -4 2 12.3
16 -5 -4 4.1 8.6
16 -5 4 -6.5 8.3
17 0 -4 94.39 24.4
17 0 4 123.99 30.5
0 0 5 1.1 2.7
0 0 -5 0 3
0 1 5 -0.5 2.1
0 1 -5 -0.1 2.2
0 -1 5 0.6 2.3
0 -1 -5 1.5 3
0 -2 5 4001.3 156.98
0 2 -5 3816.22 158.08
0 -2 -5 3777.92 161.08
0 -2 5 3867.91 151.18
0 2 5 3990.6 161.28
0 -3 -5 -1.5 2.1
0 3 5 -1.2 2.4
0 3 5 0.1 3.3
0 3 -5 0.8 1.7
0 -3 5 -0.1 1.6
0 3 -5 -1.9 1.5
0 -4 -5 234.58 18.4
0 4 -5 218.08 14.4
0 4 5 214.68 18.9
0 4 5 232.08 18.9
0 4 -5 224.58 14.9
0 -5 -5 0.4 2.7
0 5 5 5.6 5.1
0 5 -5 -0.1 2.4
0 5 -5 4 2.4
0 5 5 3 3.1
0 6 -5 1206.28 59.69
0 6 5 1288.77 66.79
0 6 5 1333.57 63.49
0 -6 -5 1225.18 58.59
0 7 5 -2.5 2.2
0 7 -5 -1.4 1.3
0 7 -5 2.9 3.9
0 7 5 -0.2 4.5
0 -7 -5 0.5 2.3
0 8 5 258.47 22.4
0 8 -5 246.38 22.1
0 9 -5 -2.3 3.6
0 9 5 -3.1 2.8
0 10 -5 97.89 18
0 10 5 141.99 21.7
0 11 -5 -0.6 6.1
0 11 5 1.6 5.5
0 11 5 13.9 9.6
0 12 5 50.59 19.4
0 12 -5 46.1 15.5
0 12 5 42.6 12.7
0 13 5 -4.8 10.6
0 13 5 -2.4 7.9
0 14 5 -1.7 15.6
0 14 -5 11.5 14.7
1 0 5 -2.7 2
1 0 -5 -1.1 2.4
-1 0 5 1.6 1.8
-1 0 -5 2.4 3.6
-1 0 5 -2.7 1.7
-1 1 -5 69.19 10.3
1 -1 -5 36.1 7.2
1 1 5 55.99 8.8
-1 1 5 39.4 7.9
1 1 -5 79.39 11.4
1 -1 5 65.09 9.9
-1 1 5 81.89 8.5
-1 -1 -5 65.99 10.2
1 -2 -5 387.46 25.3
-1 2 -5 408.16 24.1
1 2 5 394.76 25.6
1 2 -5 417.46 23.6
-1 2 5 367.96 24.9
-1 2 5 398.06 23
1 -2 5 386.76 22.5
1 -2 5 406.76 19.8
-1 -2 -5 381.66 25.8
1 -3 -5 323.17 22.6
-1 3 -5 315.97 20.1
1 3 5 349.57 23.5
1 3 -5 319.77 16.2
1 3 -5 324.47 19.8
-1 -3 -5 320.97 22.9
-1 3 5 328.47 22.8
-1 3 5 284.27 21
1 -3 5 316.07 17.7
1 -3 5 357.36 20.4
-1 4 -5 87.09 10.3
1 4 5 119.79 18.9
-1 4 -5 112.59 10.3
1 -4 -5 112.49 14.3
1 4 -5 113.29 9.3
-1 -4 -5 134.49 15.9
1 -4 5 113.79 10.5
-1 4 5 98.59 14.1
1 5 5 215.48 18.7
-1 5 -5 229.08 16.7
-1 5 -5 213.58 14.7
1 -5 -5 220.68 17.7
-1 5 5 214.48 18.5
-1 -5 -5 247.68 18.5
-1 5 5 215.38 19.5
1 5 -5 222.18 15.6
1 -5 5 186.38 16
1 6 5 5.5 4.6
-1 6 -5 24.7 6.8
1 6 5 9.9 6.6
-1 6 -5 13.3 4
1 -6 -5 14.9 5.4
-1 6 5 4 4.5
1 -6 5 18.7 6.1
1 6 -5 19 5.3
-1 6 5 6.7 6
-1 -6 -5 17.1 5.2
-1 7 -5 291.27 17.5
1 7 5 291.47 23.5
1 7 5 283.97 26.6
-1 7 -5 286.97 22.5
1 -7 -5 286.37 18
1 -7 -5 258.07 18.1
-1 7 5 283.27 23.2
-1 -7 -5 316.97 18.5
-1 7 5 316.77 27.1
1 7 -5 264.87 21.5
1 8 5 76.39 13.8
-1 8 -5 87.99 14.3
-1 8 -5 86.39 8
1 8 -5 73.09 13.5
-1 8 5 94.69 15.6
1 9 5 2.6 4.8
-1 9 -5 -0.3 4.2
1 9 -5 4.1 5.2
-1 9 5 2.4 4.9
-1 10 -5 46.3 13.1
1 10 5 49.1 15
1 10 5 38 11.7
-1 10 5 35.3 10.9
1 10 -5 68.99 14.8
1 11 5 169.98 29.1
1 11 5 195.88 26.2
-1 11 -5 170.58 25.9
-1 11 5 159.88 28.4
-1 11 5 202.48 28.4
1 12 5 17.9 9.8
-1 12 -5 20.4 12.1
1 12 5 11.1 13.1
-1 12 5 7.8 8.4
-1 12 5 5 10.2
1 12 -5 19 11.9
-1 13 -5 57.29 18.4
1 13 5 46.2 14.7
1 13 5 114.49 38.4
-1 13 5 24.7 16.1
1 14 5 2 19.1
-1 14 -5 6.6 14.1
1 14 -5 19.5 16.1
-1 14 5 0.5 18.9
-2 0 5 1.5 1.9
2 0 -5 -0.6 1.5
2 0 5 -0.1 2.3
-2 0 -5 1.3 2.9
2 0 -5 1.1 2.6
2 -1 -5 605.14 30.4
2 -1 -5 637.44 35.1
2 1 5 579.64 34.9
2 -1 5 639.44 34.3
2 1 -5 636.34 26.6
2 1 -5 585.94 33.7
-2 -1 -5 647.84 36.3
-2 1 5 658.93 30.8
2 -2 -5 872.11 42.1
2 -2 -5 823.32 44.6
2 2 5 817.82 44.7
-2 2 -5 882.81 44.1
2 -2 5 841.32 39.5
2 -2 5 835.42 42
-2 -2 -5 889.21 46.2
-2 2 5 886.81 45
-2 2 5 865.81 41.9
2 3 5 250.97 20.3
2 -3 -5 216.98 18.9
2 -3 -5 270.67 20
-2 3 -5 298.37 19.6
2 -3 5 259.17 17.1
-2 3 5 299.47 21.3
-2 -3 -5 304.27 21.9
2 -3 5 264.97 16.7
-2 3 5 210.58 18.2
-2 4 -5 249.28 17
-2 4 -5 233.48 17.1
2 -4 -5 232.28 20.7
2 -4 -5 265.87 20.1
-2 4 5 249.38 19.8
2 4 -5 245.48 15.2
-2 4 5 226.38 19.2
2 -4 5 219.38 16.8
-2 -4 -5 201.28 18.2
2 5 5 352.06 24.8
-2 5 -5 304.47 20.1
-2 5 -5 333.07 21.9
2 -5 -5 310.37 22.5
2 -5 5 321.87 22.3
2 5 -5 289.27 19.4
-2 5 5 277.57 22.6
-2 -5 -5 336.37 23.2
-2 6 -5 435.66 24
-2 6 -5 382.46 26.2
2 6 5 388.96 28.2
2 -6 -5 388.46 25.3
2 -6 -5 380.66 25.1
-2 6 5 393.56 30.4
-2 -6 -5 415.26 25.7
2 -6 5 365.76 26.3
-2 6 5 391.76 27.9
2 6 -5 367.16 24.4
-2 7 -5 221.58 19.8
2 -7 -5 196.68 14.8
2 -7 -5 201.58 15
2 7 5 203.48 19.3
-2 7 -5 174.68 13.9
2 7 -5 200.58 17.6
-2 7 5 150.58 22.2
-2 7 5 186.58 22
-2 -7 -5 176.88 14.2
2 -7 5 169.48 21.2
2 8 5 5.3 5.6
-2 8 -5 10 6.5
-2 8 -5 5.7 3.6
2 8 -5 8.8 4.9
-2 8 5 10.1 6.4
-2 9 -5 236.58 16.6
-2 9 -5 250.97 28.7
2 9 5 240.78 23.1
-2 9 5 237.18 22.7
2 9 -5 283.17 24.3
-2 10 -5 96.69 18
2 10 5 111.49 23.2
2 10 5 56.39 13.8
-2 10 -5 74.89 10.3
-2 10 5 89.59 17.6
2 10 -5 72.79 15.6
2 11 5 116.29 28.7
-2 11 -5 84.89 18.4
2 11 5 96.29 18.4
-2 11 5 113.89 19.6
2 12 5 26 15.7
-2 12 -5 23.9 12
2 12 5 27.3 11.6
2 12 -5 7.2 8.8
-2 12 5 18.5 13.7
2 13 5 7.8 9.5
-2 13 -5 5.7 11.1
2 13 5 7.1 14.2
-2 13 5 13.7 15.3
2 14 5 4.7 32.7
2 14 -5 8.1 13.6
3 0 -5 2.6 3.2
-3 0 -5 2.4 4.1
3 0 -5 0.5 2
3 0 5 3.8 3.5
3 -1 -5 311.47 22.6
3 1 5 280.87 22.3
3 -1 -5 286.47 18.5
-3 1 -5 313.47 23
-3 1 5 309.07 18.9
3 -1 5 311.87 22
3 1 -5 322.17 16.5
-3 -1 -5 300.47 23.3
3 2 5 472.35 30.1
3 -2 -5 472.45 29.9
-3 2 -5 447.86 28.8
3 -2 5 460.45 27.7
-3 -2 -5 441.16 30
-3 2 5 443.26 26.6
3 3 5 666.03 39.8
3 -3 -5 658.03 37.2
-3 3 -5 642.84 36.9
3 -3 -5 679.63 38.8
3 -3 5 671.73 35.2
-3 -3 -5 666.83 39.4
3 -3 5 658.33 34.8
-3 3 5 675.83 37
3 4 5 853.41 46.5
3 -4 -5 730.73 43.4
-3 4 -5 807.82 42.8
3 -4 -5 822.42 45.5
-3 4 5 794.22 44.9
3 -4 5 836.22 38.5
3 -4 5 857.31 42.9
-3 -4 -5 807.52 45.3
-3 5 -5 111.49 14.9
3 -5 -5 85.19 13.3
-3 5 -5 126.09 12.3
3 -5 -5 91.79 14.3
3 -5 -5 130.39 19
3 5 5 96.19 15.2
-3 5 5 99.39 15.8
-3 5 5 111.89 16.3
-3 -5 -5 86.69 13.4
-3 6 -5 26 6.9
-3 6 -5 21.8 6.9
3 -6 -5 37.4 11.1
3 -6 -5 28 7.5
3 -6 -5 15.2 6.1
3 6 5 21.9 7.2
3 -6 5 29 8
-3 -6 -5 14.7 6.2
-3 6 5 20 7.4
3 6 -5 16.8 5.6
-3 6 5 18.4 8
-3 7 -5 31.7 8.9
-3 7 -5 32.4 7.4
3 -7 -5 21.1 6.1
3 -7 -5 26.9 6.8
3 7 5 25.4 8.5
3 -7 5 34 10
3 7 -5 24.1 7.4
-3 7 5 13.5 6.9
-3 7 5 27.3 8.6
-3 -7 -5 37.2 7.9
-3 8 -5 254.97 23.7
3 8 5 269.47 24.4
-3 8 -5 254.17 19.4
3 -8 5 293.97 26.1
3 8 -5 273.57 22.9
-3 9 -5 111.79 19.6
-3 9 -5 72.99 11.6
3 9 -5 88.49 16.2
3 -9 5 73.89 15.7
-3 10 -5 36 11.7
3 10 5 54.59 14.3
-3 10 -5 46.1 13.3
3 10 5 44.1 14.5
3 10 -5 47.5 13.1
-3 10 5 41.7 14.8
3 10 -5 48.9 9.3
3 11 5 63.69 21.8
-3 11 -5 42.5 13.6
3 11 5 48.6 14.9
-3 11 -5 37.7 8
3 11 -5 52.79 9.8
-3 11 5 31.3 15.1
3 11 -5 55.09 18.6
3 12 5 55.89 19.5
-3 12 -5 109.79 23
3 12 -5 75.99 18.7
-3 12 5 38.8 18.2
-3 13 -5 13.4 13.1
3 13 5 7.3 15.4
3 13 5 9.5 10.5
-3 13 5 20.4 16.4
-3 14 -5 5.4 15.2
3 14 -5 10 15.1
4 0 5 0.2 2.8
-4 0 -5 -0.2 2.7
4 0 -5 1 2.2
4 -1 -5 23.2 5.8
-4 1 -5 17.5 6.2
4 1 5 21.6 6.7
4 -1 5 20.3 7.3
-4 -1 -5 21.6 7.4
-4 2 -5 357.86 26.2
4 2 5 365.66 27.3
4 -2 -5 379.66 26.8
4 -2 -5 355.56 23.8
4 -2 5 333.97 24.6
-4 -2 -5 363.46 27.4
-4 2 5 389.66 24.1
4 -3 -5 95.79 15.4
4 3 5 89.99 15.9
-4 3 -5 71.49 12.8
-4 3 5 43.2 9.5
4 -3 5 115.19 14.5
-4 -3 -5 78.49 14.6
4 -3 5 62.89 10.3
-4 4 -5 410.06 28.2
4 4 5 438.16 31.1
4 -4 -5 472.35 30.7
4 -4 -5 402.66 29.1
4 -4 -5 423.66 30
-4 -4 -5 410.86 29.8
4 -4 5 445.66 25.7
-4 4 5 442.96 29.9
4 -4 5 372.66 31.4
4 -5 -5 54.59 12
4 -5 -5 50.99 11.6
4 5 5 43 11.1
-4 5 -5 39 9.2
4 -5 5 18.6 4.9
-4 -5 -5 36.3 11.4
-4 5 5 42.3 10.4
4 -6 -5 2.4 3.3
4 -6 -5 -2 2.6
4 6 5 0.4 3.3
-4 6 -5 -1 2.7
4 -6 -5 -1 3.7
-4 6 5 -1 4
4 -6 5 0.8 3.7
-4 7 -5 76.09 12.7
-4 7 -5 105.89 17
4 -7 -5 79.59 13
4 7 5 72.09 15.4
4 -7 -5 57.49 14.4
-4 -7 -5 93.49 14.9
4 -7 5 42.6 10.6
-4 7 5 60.39 14.5
4 -8 -5 31.8 6.9
4 8 5 55.89 13.4
-4 8 -5 21.2 9.1
-4 8 -5 31.6 8.5
4 -8 -5 6.9 5.9
4 -8 5 22.6 9.5
4 8 -5 42.8 9.6
4 8 -5 40.8 10.6
-4 -8 -5 31.5 6.2
4 9 5 4.9 5.7
-4 9 -5 10.3 5.6
-4 9 -5 15.1 9.2
-4 9 5 5.9 8.9
4 -9 5 7.5 7.5
4 9 -5 7.8 5.6
4 9 -5 14.8 8.4
-4 10 -5 3.4 4.5
-4 10 -5 9.5 8.2
4 10 5 -2.3 6.4
4 10 5 7.6 7.1
4 10 -5 -0.1 5
4 10 -5 1.8 4.4
-4 10 5 8.2 8
4 -10 5 -2.6 4.6
-4 11 -5 132.79 17.5
4 11 5 118.19 26.1
-4 11 -5 144.89 25.1
4 11 5 134.79 23.9
4 11 -5 113.09 20.7
-4 11 5 153.58 29.7
4 11 -5 160.98 19.4
4 12 5 0.2 10.6
-4 12 -5 -0.2 3.6
4 12 5 -4.7 6.8
-4 12 5 -3.3 8.8
4 12 -5 -3.3 4.5
4 12 -5 -4.7 6.8
-4 13 -5 27.2 17.4
4 13 5 20.2 13
4 13 5 11.6 15.9
-4 13 5 34.5 21.8
4 13 -5 38 17.3
-4 14 -5 4.2 17
4 14 -5 1.3 15.5
-5 0 -5 2 3.6
5 0 -5 1.2 2.8
5 0 5 -1 3
5 1 5 144.29 20.7
-5 1 -5 84.09 13
5 -1 -5 88.39 11.9
-5 -1 -5 70.49 12.4
5 -1 5 91.89 14.6
5 2 5 136.69 19.2
-5 2 -5 186.28 22.1
5 -2 -5 166.38 21
5 -2 -5 170.48 19.4
-5 2 5 204.68 16.8
-5 -2 -5 157.28 20.3
5 -2 5 203.68 18.3
5 -3 -5 5.2 5.1
5 -3 -5 4 4.5
5 3 5 8.2 5.8
-5 3 -5 0.7 3.6
-5 -3 -5 4 5.3
-5 3 5 13.8 6.5
5 -3 5 7.8 5
5 -3 5 0.6 2.8
5 -4 -5 132.59 18.5
-5 4 -5 150.98 20
5 -4 -5 121.69 18.3
5 4 5 137.29 18.1
5 -4 -5 145.49 19
-5 -4 -5 94.79 15.5
-5 4 5 111.09 16.2
5 -4 5 120.79 15.1
5 -4 5 100.49 15.4
-5 5 -5 195.48 18.9
5 5 5 245.98 29.5
5 -5 -5 156.88 22
5 -5 -5 127.29 18.5
5 -5 -5 187.98 18.6
5 -5 5 178.08 14.4
5 -5 5 151.18 19.5
-5 5 5 254.97 27
5 -6 -5 411.86 33.9
5 -6 -5 452.65 30.8
5 6 5 492.75 35.9
5 -6 -5 432.66 31.5
-5 6 -5 460.25 31.9
-5 6 5 429.86 33.7
5 -6 5 424.66 32
-5 -6 -5 409.16 30.5
-5 7 -5 74.49 13.9
5 7 5 83.79 17.8
5 -7 -5 79.59 14
5 -7 -5 52.19 13.3
5 -7 -5 102.69 15.4
5 7 -5 69.99 13.7
-5 7 5 63.09 15.4
5 -7 5 78.59 16.1
-5 8 -5 83.09 16.4
5 -8 -5 65.49 11.3
5 -8 -5 76.29 11.8
-5 8 -5 78.99 15.1
5 8 5 90.19 18.4
5 -8 -5 82.79 18.7
5 -8 5 65.99 14.7
5 8 -5 61.59 13.2
-5 8 5 68.89 20.4
5 9 5 1.1 6.1
-5 9 -5 -1.1 3.3
-5 9 -5 -3.8 4.3
5 9 -5 -0.8 3.7
5 -9 5 1.7 6.1
5 9 -5 -1.5 4.3
-5 9 5 -0.2 5.8
-5 10 -5 7.7 8.2
5 10 5 0.4 5.7
-5 10 -5 5.9 5.6
5 -10 5 5.1 6.9
5 10 -5 -1.8 5.5
5 10 -5 22.7 9.4
-5 10 5 -3.8 6.4
-5 11 -5 65.99 18.1
-5 11 -5 62.39 13.2
5 11 5 28.1 13.3
5 11 5 24.9 14.6
5 11 -5 59.09 13.8
5 -11 5 54.29 16.3
5 11 -5 43.3 13.8
-5 11 5 48 18.9
5 12 5 5.3 9.6
-5 12 -5 0.6 4.2
-5 12 -5 2.9 10.6
5 12 -5 0.5 5.9
-5 12 5 3.7 12.6
5 12 -5 -3.8 7.6
5 13 5 0.8 11.6
5 13 5 -2.9 17.9
-5 13 -5 17.6 25.7
5 13 -5 7.4 12.1
-5 13 5 -2.1 23.6
6 0 5 -1.3 3
6 0 -5 2.1 3.1
6 0 -5 -0.5 3.4
-6 0 -5 -0.9 3.9
6 -1 -5 195.78 25.2
6 1 5 195.58 24.5
-6 1 -5 126.09 19.7
6 -1 -5 119.69 19.3
6 -1 5 103.89 16.8
6 1 -5 113.79 16.7
-6 -1 -5 115.99 18.4
6 -2 -5 1091.79 62.49
6 -2 -5 1085.59 56.59
6 2 5 1116.99 62.39
-6 2 -5 1107.69 61.79
-6 -2 -5 1054.89 61.69
6 2 -5 1079.39 61.39
6 -2 5 1142.79 60.39
6 -3 -5 55.89 11.4
-6 3 -5 61.29 13.3
6 -3 -5 45.9 10.4
6 3 5 50.69 13
6 -3 -5 22.2 8.1
6 -3 5 51.19 11.6
-6 3 5 44.7 10
-6 -3 -5 49.3 11.4
6 3 -5 58.19 11.9
6 -3 5 45.1 10.4
6 -4 -5 12.7 6.9
6 -4 -5 0.3 3.3
-6 4 -5 8.3 6
6 4 5 0.8 3.7
6 -4 -5 -2.5 2.6
-6 -4 -5 3.1 5.6
6 -4 5 4.8 4.1
6 4 -5 -1.1 3.5
-6 4 5 1.5 4.3
6 -4 5 3.7 4.5
6 -5 -5 124.09 19.8
6 -5 -5 170.78 22.4
6 5 5 157.08 24.4
6 -5 -5 129.69 20.3
-6 5 -5 171.18 23.8
-6 -5 -5 154.28 23.2
6 5 -5 179.48 23.1
6 -5 5 144.59 14.4
6 -5 5 162.48 21.6
-6 5 5 125.99 19.9
6 -6 -5 234.18 28.7
6 -6 -5 228.68 21.6
6 -6 -5 252.17 23.3
-6 6 -5 239.08 23.2
6 6 5 236.18 28.1
-6 6 5 259.47 30.5
6 -6 5 170.38 23.6
6 6 -5 237.18 30.2
-6 -6 -5 241.38 22.6
6 -6 5 205.28 15.7
6 -7 -5 -1.2 3.2
6 7 5 4.5 6.5
-6 7 -5 5.7 5.9
6 -7 -5 10.5 5.3
6 -7 -5 9.9 7.7
-6 -7 -5 7.1 5.3
6 -7 5 3.7 5.5
6 7 -5 9.4 6.8
6 -8 -5 12.5 6.5
6 -8 -5 19.3 6.8
-6 8 -5 26.8 9.6
6 8 5 23.2 11
6 -8 5 32 10.5
-6 -8 -5 16 6.5
6 8 -5 31.7 10.9
-6 8 5 5.8 7.6
6 9 5 -0.2 5.7
6 -9 -5 6.4 4.1
6 -9 -5 -0.9 6.5
-6 9 -5 5 4.9
6 -9 5 5.7 6.8
-6 9 5 8.4 9.4
6 9 -5 1 4.5
-6 10 -5 120.09 20.3
6 10 -5 131.39 27.1
6 -10 5 94.99 20.4
-6 10 5 97.29 23.1
6 10 -5 124.69 20.8
-6 11 -5 5.8 7.9
6 11 5 0.7 8
6 11 -5 11.6 8.7
6 11 -5 9.8 9.7
-6 11 5 11.1 12.2
6 -11 5 10.4 10.3
6 12 5 80.89 25.3
-6 12 -5 84.79 16.9
-6 12 5 72.09 24.2
6 12 -5 127.09 21.4
6 12 -5 140.79 26.9
6 13 5 0.8 13.5
6 13 5 3.2 19.2
6 13 -5 1.3 12
7 0 5 1 4.4
-7 0 -5 7.4 4.7
7 0 -5 -0.7 3.7
7 0 -5 1.8 3.4
7 -1 -5 -1.4 3
-7 1 -5 -2.6 3.5
7 1 5 -1.4 2.5
7 -1 -5 3.1 4
-7 -1 -5 -0.6 3.2
7 -1 5 -0.6 2.9
7 1 -5 4.2 4.8
7 -2 -5 127.39 18.2
7 -2 -5 93.89 19.3
-7 2 -5 99.59 16.9
7 2 5 81.79 16
7 2 -5 104.29 19.4
7 -2 5 96.09 17.2
-7 -2 -5 129.89 22
7 -3 -5 189.88 23.1
7 3 5 135.79 23.1
7 -3 -5 123.99 22.1
7 3 -5 123.69 19.6
7 -3 5 117.39 17.8
-7 -3 -5 131.69 19.6
7 -3 5 136.79 19
7 -4 -5 30 9.9
7 4 5 60.09 15.6
-7 4 -5 34.1 10.7
7 -4 -5 25.5 9.4
7 -4 -5 21.8 8.1
7 4 -5 39.2 11.6
-7 -4 -5 67.39 16.1
7 -4 5 45.4 11.7
7 -4 5 24.2 8.4
7 -5 -5 154.48 21.8
-7 5 -5 174.18 25.4
7 -5 -5 134.29 21
7 -5 -5 158.68 23.5
7 -5 5 115.09 16.7
7 5 -5 142.69 23.5
-7 -5 -5 166.18 24.1
-7 5 5 147.29 22.5
7 -5 5 182.98 24
7 6 5 148.59 26.2
7 -6 -5 138.29 21.9
7 -6 -5 178.58 24.2
7 -6 -5 119.59 21
-7 6 -5 131.09 22.8
7 -6 5 135.39 16.5
-7 -6 -5 134.09 21
-7 6 5 134.69 22.1
7 -6 5 109.39 19.2
7 6 -5 125.39 26.1
7 -7 -5 5.6 7.1
7 -7 -5 2 4.9
7 -7 -5 4.7 5.3
-7 7 -5 2 4.6
7 7 5 -2.8 3.5
7 7 -5 -1.7 3.9
-7 -7 -5 -2 3.3
-7 7 5 2.7 5.7
7 -7 5 1.2 5.7
7 -8 -5 1.7 3.7
7 8 5 10 8.9
-7 8 -5 5 6.3
7 -8 -5 -2.9 6.8
7 -8 -5 7.7 6.3
7 -8 5 -1.3 4.9
7 8 -5 -2.1 3.9
-7 8 5 8.2 8.4
-7 -8 -5 1.1 3.6
7 9 5 26.8 19.8
7 -9 -5 40.6 9
7 -9 -5 47.3 9.3
7 -9 -5 20.2 12
-7 9 -5 44.6 13.2
7 9 -5 28.3 12.2
7 -9 5 29.5 11.6
-7 9 5 46.2 16.7
-7 10 -5 26.7 10.6
7 10 5 25.8 14.3
7 -10 -5 45.7 16.7
7 10 -5 37.5 13.4
7 10 -5 14.8 10.2
-7 10 5 43.1 17.3
7 -10 5 44.7 15.3
7 11 5 24.2 14.5
-7 11 -5 38.5 12.2
7 -11 5 35.1 13.9
7 11 -5 10.7 10.5
-7 11 5 66.39 34.6
7 12 5 -0.4 11.4
-7 12 -5 0.3 5.9
7 12 5 9.2 16.5
7 12 -5 8.8 10.9
7 12 -5 6.6 12.1
7 -12 5 1.1 8.1
-7 12 5 5.7 15.2
7 13 -5 176.08 36.7
-8 0 -5 1.5 4.3
8 0 5 -1.1 3.8
8 0 -5 -1.1 3.1
8 0 -5 2.3 4.6
8 -1 -5 10.6 7.2
8 -1 -5 23.1 7.6
-8 1 -5 7 7.3
8 1 5 20.6 10.1
-8 -1 -5 18.8 9.1
8 -1 5 8.6 6.1
8 1 -5 9.5 6.8
8 2 5 902.71 57.79
8 -2 -5 875.41 57.19
8 -2 -5 772.82 49.4
-8 2 -5 914.61 58.29
8 2 -5 878.41 57.19
8 -2 5 866.31 54.59
8 -3 -5 538.25 38.9
8 -3 -5 580.64 44.4
-8 3 -5 586.24 44.5
8 3 5 594.44 45.3
8 -3 5 650.83 43.1
8 -3 5 600.44 40.9
8 3 -5 565.64 43.9
8 -4 -5 72.69 16.9
8 -4 -5 30.7 10.5
8 -4 -5 33.8 10.7
-8 4 -5 54.49 14.3
-8 -4 -5 65.59 16.5
8 -4 5 49.8 12.5
8 4 -5 59.19 19.6
-8 5 -5 11.4 8.5
8 5 5 13.1 8.2
8 -5 -5 23.3 9.3
8 -5 -5 13.7 8.8
8 -5 -5 40.4 13.7
8 -5 5 27.3 9.1
8 5 -5 21.9 11.2
8 -5 5 11.7 7.3
-8 -5 -5 20.5 9.1
8 -6 -5 78.29 18.8
8 -6 -5 68.59 16.2
8 6 5 51.49 15.5
8 -6 -5 110.39 18.3
-8 6 -5 99.39 20.6
8 6 -5 61.29 15.6
8 -6 5 78.29 17.2
-8 -6 -5 92.39 18.4
8 -6 5 85.59 14.8
8 -7 -5 222.08 30.8
8 7 5 296.57 39.6
8 -7 -5 240.08 23.9
8 -7 -5 269.77 32.4
-8 7 -5 190.48 29.2
8 -7 5 210.88 29.3
8 7 -5 262.47 35.3
-8 7 5 210.88 30.3
8 -7 5 222.58 17.6
-8 -7 -5 246.48 24.4
-8 8 -5 31.6 11.7
8 -8 -5 56.09 16.9
8 -8 -5 51.69 11.8
8 -8 -5 64.39 13.9
8 -8 5 17.6 10.3
-8 -8 -5 26.1 9.5
8 8 -5 38.3 14.3
-8 8 5 64.59 18.3
8 -9 -5 15.8 7.4
8 9 5 7.2 9.9
8 -9 -5 23.3 8.2
-8 9 -5 10.6 8.4
8 -9 -5 15.6 11.8
8 9 -5 7.9 8.8
-8 9 5 19.1 13.3
8 -9 5 38.3 14.3
8 -10 -5 157.88 29.5
8 10 5 146.39 27.9
-8 10 -5 148.79 25.8
8 -10 5 115.99 24.8
-8 10 5 199.48 34.6
8 10 -5 163.38 29
-8 11 -5 7.3 8.4
8 11 5 3.6 12.1
8 -11 -5 26.9 27.1
8 11 -5 19.6 13.5
8 11 -5 2.1 9.6
8 -11 5 16.5 11.8
-8 11 5 19.1 15
-8 12 -5 45.1 17.1
-8 12 5 83.59 29.5
8 -12 5 68.19 20.7
8 12 -5 102.49 24.9
-9 0 -5 -4.9 3.2
9 0 -5 -2.6 4
9 0 5 4.6 6.3
9 0 -5 -1.2 3.4
-9 1 -5 108.49 22.4
9 1 5 84.29 18.1
9 -1 -5 77.19 15.2
9 -1 -5 92.79 21
9 1 -5 81.69 19.2
9 -1 5 80.29 18.5
-9 -1 -5 47.6 12.9
9 -2 -5 403.66 37.2
-9 2 -5 451.65 39
9 -2 -5 400.46 32.1
-9 -2 -5 396.16 37
9 -2 5 358.86 33.6
9 -3 -5 81.39 15.8
9 -3 -5 87.09 17.3
9 3 5 57.79 27.6
-9 3 -5 95.99 18.4
9 -3 5 79.29 16
9 -3 5 146.19 23.9
-9 -3 -5 94.19 21.9
9 -4 -5 150.68 23.7
9 -4 -5 218.28 33.2
9 -4 -5 109.69 20.1
-9 4 -5 117.89 20.8
9 -4 5 135.19 22.7
9 -4 5 145.09 22
-9 -4 -5 127.29 22.3
9 4 -5 113.49 23.3
-9 5 -5 271.27 36
9 -5 -5 295.97 35
9 -5 -5 364.16 34.1
9 -5 -5 336.67 30.9
9 5 -5 301.37 37.5
-9 -5 -5 343.67 32.9
9 -5 5 315.57 36.5
9 -6 -5 0.2 5.9
9 6 5 -3.3 4.9
9 -6 -5 21.2 8.6
-9 6 -5 0.3 4.6
9 -6 -5 0.4 5.5
9 6 -5 -1.2 4.5
9 -6 5 -0.1 5.5
-9 -6 -5 5.4 6.9
9 -6 5 1.1 3.9
9 -7 -5 -0.7 4.9
9 -7 -5 -2.7 4.3
-9 7 -5 -0.3 5.7
9 7 5 -0.4 6.5
9 -7 -5 -1.6 4
-9 -7 -5 -3.9 3.3
9 -7 5 1.1 3.5
9 -7 5 -1.5 5.4
9 7 -5 3.5 7.2
9 8 5 14.2 10.5
9 -8 -5 -2 4.4
9 -8 -5 22.5 9.6
9 -8 -5 15.7 11.7
-9 8 -5 1.3 6.3
9 8 -5 10.2 10
-9 -8 -5 0.8 4.4
9 -8 5 0.8 5.8
9 -9 -5 2.3 5.1
9 -9 -5 5 5.8
9 9 5 -1.5 8
-9 9 -5 -3.4 3.9
9 -9 -5 -2.4 6.4
9 -9 5 5.7 7.7
9 9 -5 -0.6 7.7
-9 9 5 1.4 8.2
9 10 5 24.5 17.7
9 -10 -5 20.5 13.7
-9 10 -5 43.9 16.3
9 10 -5 21.3 13.3
-9 10 5 26.2 19.6
9 -10 5 27.7 14.2
9 11 5 10.6 20.3
9 -11 -5 20.7 16
-9 11 -5 22.3 12.2
9 -11 5 13.1 14
-9 11 5 3.4 15
9 11 -5 11.3 13.7
-9 12 -5 -0.6 7.3
9 12 -5 12.8 16.7
9 -12 5 -4.7 7.8
10 0 -5 -2.1 3.9
10 0 -5 -1.9 3.5
10 0 5 -3.8 3.4
-10 0 -5 0.3 5.4
10 1 5 -1.5 3.8
-10 1 -5 -1.3 5.5
10 -1 -5 -0.3 4.6
10 -1 -5 1.4 5.7
10 1 -5 2.7 4.6
10 -1 5 -2.4 3.6
-10 -1 -5 -3 3.2
10 -2 -5 4.8 6.1
-10 2 -5 4 6.8
10 -2 -5 -0.8 4.2
10 -2 5 -0.1 5.6
-10 -2 -5 0 4.2
10 -3 -5 33.5 15.3
10 3 5 4.3 6.1
-10 3 -5 31.1 11.9
10 -3 -5 4.2 6.6
10 -3 5 16.1 9.2
-10 -3 -5 11.2 8.8
10 -3 5 29.6 11.2
10 -4 -5 94.49 19.5
-10 4 -5 106.69 22.4
10 -4 -5 67.29 18.9
10 -4 5 114.09 22.2
10 4 -5 68.79 18.8
10 -4 5 109.59 21.2
-10 -4 -5 78.19 17.6
10 -5 -5 117.69 21.6
-10 5 -5 126.79 26.7
10 -5 -5 87.89 19.3
10 -5 -5 116.59 25.7
10 -5 5 128.79 23.1
10 -5 5 121.09 20.7
-10 -5 -5 95.99 21.8
10 5 -5 119.39 23.6
10 -6 -5 13.9 10.3
-10 6 -5 16 10.3
10 6 5 14.6 12.1
10 -6 -5 3.7 7.1
10 -6 -5 12.2 8.2
10 -6 5 13.9 9.8
10 6 -5 19.6 12.8
-10 -6 -5 15.4 9.5
10 -6 5 18.6 9.6
-10 7 -5 180.58 32.8
10 -7 -5 144.09 26.1
10 -7 -5 168.88 28.7
10 7 5 122.39 25
10 -7 -5 148.59 24.2
10 -7 5 153.68 20.9
10 -7 5 163.88 28.4
10 7 -5 103.59 24.4
-10 -7 -5 143.29 24.2
10 -8 -5 40.2 12.3
10 -8 -5 36.1 14.9
10 -8 -5 15.1 9.7
-10 8 -5 29.3 12.4
10 -8 5 32.4 7.8
10 8 -5 12 12.2
10 -8 5 22.7 13.1
-10 9 -5 116.29 25.8
10 9 5 32.2 18.7
10 -9 -5 90.59 17.4
10 -9 -5 90.39 23.8
10 -9 -5 92.39 17.3
10 -9 5 95.59 22.1
-10 10 -5 -1.4 5.8
10 -10 -5 10.3 10.6
10 10 5 -4.2 14
10 -10 -5 4.9 5
10 10 -5 2.4 11.7
10 -10 5 -3.6 6.4
-10 11 -5 0.6 7.2
10 -11 -5 -2.8 9.4
10 11 -5 1.3 17.1
10 -11 5 6.3 12.1
-11 0 -5 8.2 7.6
11 0 -5 -3.5 4.8
11 0 -5 -1.9 5.6
11 1 5 -4.1 4.8
-11 1 -5 0.2 4.8
11 -1 -5 -2 6.6
11 -1 -5 -4 3.1
11 1 -5 8.8 6.8
11 1 -5 4.3 7.5
11 -1 5 -5.7 5.5
-11 -1 -5 -3.8 2.7
11 2 5 37.6 15.4
11 -2 -5 51.49 13.6
-11 2 -5 26.8 12.9
11 -2 5 51.89 14.7
11 -2 5 13 9.7
-11 -2 -5 42.4 15.7
11 2 -5 44.9 15.9
11 3 5 28.3 14
-11 3 -5 66.69 20.6
-11 -3 -5 58.59 18.4
11 -3 5 41.3 13
11 -3 5 48.8 14.6
11 -4 -5 -2 5.5
-11 4 -5 6.2 7
11 -4 -5 9.5 8.5
11 4 5 7 9.1
-11 -4 -5 22.3 13.1
11 4 -5 9.5 11.5
11 -4 5 27.7 11.2
11 -4 5 12.8 9.3
11 -5 -5 94.89 19.7
-11 5 -5 120.79 28.1
11 -5 -5 82.89 26.4
11 5 5 83.79 24.5
11 -5 5 51.59 15
11 5 -5 48.6 17.5
-11 -5 -5 87.69 24.8
11 -5 5 88.49 18.5
11 6 5 115.49 27.7
-11 6 -5 118.09 26.4
11 -6 -5 152.28 28
11 -6 -5 112.09 26.2
11 -6 -5 146.79 25.8
11 -6 5 131.29 22.9
11 6 -5 124.49 29
-11 -6 -5 135.39 29
11 -6 5 119.99 25
-11 7 -5 -4 4.7
11 -7 -5 12.9 10.9
11 -7 -5 13.6 11
11 7 5 2.2 11.1
11 -7 -5 6 8.1
11 -7 5 27.6 13.8
11 7 -5 9.1 12.3
11 -7 5 0.8 5.3
-11 -7 -5 10.8 8.1
11 -8 -5 70.19 18.3
11 -8 -5 94.69 19.4
11 8 5 79.29 24.1
11 -8 -5 83.89 22.3
-11 8 -5 40.8 16.2
11 -8 5 58.59 19.3
11 8 -5 115.49 27.5
11 -8 5 71.29 13.3
11 9 5 21.6 19.4
-11 9 -5 11.9 10.7
11 -9 -5 23.2 13
11 -9 -5 8.2 8.2
11 -9 -5 32 12.3
11 -9 5 22.6 14.5
11 9 -5 18.4 16.8
11 -10 -5 18 14.4
11 -10 -5 5.3 6
-11 10 -5 9.1 9.7
11 -10 5 11.4 11.6
-11 11 -5 -4.3 7.4
11 -11 -5 -1.9 9.4
11 -11 5 -4.3 8.1
12 0 5 -0.9 7
12 0 -5 3 9.3
-12 0 -5 -3.8 3.7
12 -1 -5 -4.4 5.3
12 1 5 -4.4 9.8
-12 1 -5 -1 5.1
12 -1 -5 -2.2 4.6
12 1 -5 2.2 5.8
12 -1 5 -3.1 4.8
12 1 -5 1.6 7.5
12 -2 -5 143.49 24.9
12 2 5 134.79 30.5
-12 2 -5 123.49 28.2
12 -2 -5 110.99 26.4
-12 -2 -5 112.69 27.6
12 -2 5 121.39 23
12 2 -5 88.99 23.9
12 -3 -5 67.79 16.3
12 -3 -5 1.3 7.5
12 3 5 21.3 14.1
-12 3 -5 41.5 16.4
-12 -3 -5 45.2 16.1
12 -3 5 93.89 21.3
12 3 -5 23.2 14.1
12 -3 5 65.09 17.9
12 4 5 15.3 14.8
-12 4 -5 2.7 6.7
12 -4 -5 5.5 7.7
12 -4 -5 8.5 10.4
12 4 -5 20.4 15.6
12 -4 5 14.7 10.5
-12 -4 -5 28.6 13.4
12 -5 -5 38.5 14.8
12 -5 -5 32.9 12.3
-12 5 -5 63.09 18.5
12 -5 5 39.5 14.7
12 5 -5 44.7 24.4
-12 -5 -5 49.99 16.9
12 -5 5 67.79 18.7
12 -6 -5 6.7 8.6
12 -6 -5 -1.2 6.4
-12 6 -5 15.4 11.2
12 6 5 6.6 12.9
12 -6 -5 -0.8 7.6
12 6 -5 21.4 16.5
-12 -6 -5 16.3 10.9
12 -6 5 13.2 9.7
12 -6 5 15.4 11.1
12 -7 -5 12.7 11.4
12 7 5 -3.1 10.8
12 -7 -5 2.4 6.3
-12 7 -5 1.1 10.3
12 -7 -5 0.2 8.5
12 7 -5 -3.1 10.7
12 -7 5 -7.4 5.3
12 -7 5 -1.9 5.5
12 -8 -5 63.69 17.8
12 -8 -5 34.2 16.5
-12 8 -5 28.1 17.9
12 -8 -5 19 14.5
12 -8 5 5.8 16.2
12 -8 5 -0.5 5.2
12 8 -5 33.3 21.9
12 -9 -5 4.6 7.7
-12 9 -5 -3.6 7.4
12 -9 -5 5.1 10.6
12 -9 5 -4.5 6.5
12 -10 -5 1.7 5.9
12 -10 -5 -4.4 8.2
-12 10 -5 -3.1 8
12 -10 5 -0.2 9.6
-13 0 -5 -3.1 4.6
13 0 -5 0.2 5.8
13 0 -5 -1.9 7.5
13 0 5 -1.8 6.7
13 1 5 1.6 10.3
13 -1 -5 3.4 7.4
13 -1 -5 15 15.8
-13 1 -5 30 15.2
13 -1 5 -3.3 6.7
13 1 -5 3.2 8.8
13 1 -5 -5.7 4
-13 -1 -5 17.1 11.9
13 -2 -5 1.9 9.1
13 -2 -5 2.8 7.5
-13 2 -5 -4.4 4.9
13 2 5 1.5 8.9
-13 -2 -5 2.8 6.9
13 2 -5 -2.2 5.5
13 2 -5 -1.4 8.2
13 -2 5 -6.5 3.7
13 -2 5 3.4 9
13 -3 -5 10.3 13.9
-13 3 -5 35.4 14.8
13 -3 -5 31.3 13.8
13 -3 5 -3.2 5.7
13 3 -5 11.7 16.2
13 -3 5 -4.1 7
-13 -3 -5 34.1 14.4
13 4 5 12.7 14.2
13 -4 -5 -3 8.6
-13 4 -5 -5.6 4.8
13 -4 -5 4 6.7
13 4 -5 2.1 11.3
-13 -4 -5 2.6 8.2
13 -4 5 1 6.7
13 -5 -5 -0.7 6.8
-13 5 -5 2.8 9.4
13 5 5 0.1 11.2
13 -5 -5 8.3 11.6
13 -5 -5 -2.7 5.2
13 -5 5 -0.9 8
13 -5 5 -4.7 5.5
-13 -5 -5 12.7 11.4
13 5 -5 6.6 13
13 -6 -5 19.9 12.8
13 6 5 3.6 13.9
-13 6 -5 54.79 18.8
13 -6 -5 19.5 11.2
13 -6 -5 -1.7 9.1
13 -6 5 91.69 23.5
13 -6 5 22.7 13.3
-13 -6 -5 40.4 15.5
13 6 -5 33.1 20.3
13 -7 -5 39.8 16.8
13 -7 -5 9.9 9.1
-13 7 -5 10.3 10.2
13 -7 5 2.9 9.3
-13 8 -5 14.6 13.5
13 -8 -5 17 13.7
13 -8 -5 2.5 7.3
13 -8 5 38.3 17.5
-13 9 -5 69.79 23.9
13 -9 -5 67.39 16.9
13 -9 -5 43 19.1
13 -9 5 42.6 18.2
14 0 -5 -5 9.1
14 0 5 -0.9 10.7
-14 0 -5 5 8.5
14 0 -5 7.5 8.8
-14 1 -5 5.9 9.3
14 1 5 0.1 9.3
14 -1 -5 -2.6 7.2
14 -1 5 2.1 8.3
14 1 -5 12 10.2
14 1 -5 -2.7 10.5
14 -1 5 -3.7 8.9
-14 -1 -5 1.8 8.1
14 -2 -5 231.18 33.8
14 2 5 337.37 52.79
-14 2 -5 268.87 46.4
14 -2 -5 163.08 34.1
14 -2 5 190.18 32.1
14 2 -5 293.97 37.4
14 2 -5 204.48 37.6
14 -2 5 217.88 38.6
-14 -2 -5 295.47 43.5
-14 3 -5 -5.2 5.7
14 -3 -5 1 7.2
14 -3 -5 -2.9 11
14 3 5 -3.4 13
14 -3 5 -4.7 8.8
14 -3 5 -0.4 6.6
14 3 -5 -1.7 15.3
-14 -3 -5 6.9 11.3
14 -4 -5 -0.8 12.3
-14 4 -5 4.7 9.7
14 -4 -5 -3.3 6.6
14 4 5 -0.8 14.5
14 -4 5 -0.6 9.8
14 4 -5 4.4 14.1
-14 -4 -5 -0.3 7
14 -4 5 7.5 11.1
14 -5 -5 53.89 19.1
-14 5 -5 38.4 18.2
14 -5 -5 18.6 18.5
14 -5 -5 60.89 34.3
-14 -5 -5 25.6 13.8
14 -5 5 4.1 12
14 -5 5 62.49 19.6
14 -6 -5 71.29 20.6
14 -6 -5 105.39 24.2
-14 6 -5 64.99 22.6
14 -6 5 77.59 22.4
-14 7 -5 48.6 20.6
14 -7 -5 25.9 13.5
14 -7 -5 56.19 20.7
14 -7 5 24.1 15.8
-14 8 -5 10.7 14.3
14 -8 -5 10.9 12.4
14 -8 -5 22.7 13.4
14 -8 5 -6.2 8
15 0 -5 -3.1 7.1
-15 0 -5 -0.4 7.8
15 0 -5 -3.9 15.8
15 0 5 3.9 14.7
15 -1 -5 -4.7 5.9
15 -1 -5 -2.5 13.8
-15 1 -5 0.7 8.2
15 -1 5 7.2 14.7
-15 -1 -5 -7.3 5.7
15 1 -5 10 10.8
15 1 -5 0.3 15.6
15 -1 5 4.6 9.4
-15 2 -5 28.8 16.1
15 -2 -5 35.3 16.4
15 2 5 -0.4 19.2
15 -2 -5 3.2 14.9
-15 -2 -5 16.1 12.4
15 -2 5 92.99 23.8
15 2 -5 32.8 15.4
-15 3 -5 68.09 23.4
15 -3 -5 11.9 16.4
-15 -3 -5 20.4 14.1
15 -3 5 27.6 15.4
15 -3 5 17.8 18.6
15 3 -5 28.7 13.3
-15 4 -5 -6.2 6.6
15 -4 -5 2.6 16.8
15 -4 -5 0.7 8.7
-15 -4 -5 11 13.3
15 -4 5 8.7 11.1
15 -5 -5 -6.4 6.7
-15 5 -5 -2.4 8.1
15 -5 -5 2.9 9.4
15 -5 5 -2.9 7.9
15 -6 -5 4.5 10.5
-15 6 -5 -3.8 8.4
15 -6 -5 -0.6 7.9
15 -6 5 2.2 10.4
16 0 5 -1.6 8.3
16 0 -5 -3.1 8.5
-16 0 -5 -5.7 7.8
16 -1 -5 -2.8 8
-16 1 -5 -4.5 14.3
-16 -1 -5 0.7 10.3
16 -1 5 -3.5 7.1
16 1 -5 7.9 10.9
16 -1 5 -2.5 19.9
-16 2 -5 0.2 11.3
16 -2 -5 3.3 9.7
16 -2 5 -2.2 8.5
-16 -2 -5 -3.4 6.6
16 2 -5 11 11.6
-16 3 -5 116.69 33.2
16 -3 -5 93.89 24.2
16 3 -5 81.09 23.2
16 -3 5 118.09 28.5
-16 -3 -5 74.59 22.6
16 -4 -5 -6.5 7.8
-16 4 -5 6 13.1
16 -4 5 16.6 13.1
16 4 -5 -5.8 7.9
0 0 6 2037.7 90.99
0 0 -6 2069.39 91.79
0 1 6 -3.5 2.1
0 -1 6 1.6 3
0 -1 -6 4.5 3.3
0 1 -6 1.1 3.2
0 -2 -6 799.42 44.6
0 -2 6 851.41 33.8
0 2 6 790.62 44.1
0 2 -6 793.92 42
0 -2 6 875.71 41.2
0 3 -6 -0.1 2.4
0 3 6 -1 2.3
0 -3 -6 2.2 3.2
0 -3 6 -2.2 1
0 3 6 3.2 3.3
0 4 -6 4831.52 191.78
0 4 -6 4859.91 195.58
0 4 6 4859.01 201.18
0 4 6 4639.64 200.78
0 -4 -6 5036.4 201.88
0 5 -6 0.2 2.2
0 -5 -6 -1.6 2.6
0 5 -6 -1.7 1.7
0 5 6 -2.1 3
0 5 6 -0.1 2.6
0 6 6 291.87 25.9
0 6 6 343.97 25.7
0 6 -6 310.77 21.3
0 -6 -6 286.67 22.3
0 6 -6 345.57 20.1
0 -7 -6 2.9 3.5
0 7 -6 4.4 4.1
0 7 6 -1.3 3.1
0 7 6 -0.4 4.5
0 7 -6 -0.2 2.2
0 -8 -6 4.4 3.8
0 8 -6 3.9 2.8
0 8 6 1.7 3.8
0 8 6 3.3 10.2
0 8 -6 7.2 5.2
0 -8 -6 7.3 3.5
0 9 -6 -2 3.5
0 10 -6 35.1 10.6
0 10 6 0.8 6.8
0 10 6 21 9.5
0 11 -6 -0.9 5.3
0 11 6 -0.8 5.2
0 12 -6 271.17 34.1
0 12 6 225.18 37.9
0 13 6 -1.3 8.5
0 13 -6 -2.8 8.5
0 13 6 -4.3 11.9
0 14 -6 -3.1 11.5
-1 0 6 -1.4 1.2
1 0 6 -3.3 1.3
-1 0 -6 3.6 4.4
1 0 -6 1.6 3.4
-1 0 6 1.4 2.7
-1 1 -6 160.98 18.4
-1 -1 6 129.79 12.4
1 1 6 103.49 13.8
1 -1 -6 118.99 15.5
-1 1 6 104.89 9.2
1 -1 6 128.59 15.4
-1 1 6 102.29 13.4
1 1 -6 110.49 14.2
-1 -1 -6 125.59 16.2
-1 2 -6 5.8 3.9
1 2 6 8.2 5.3
1 -2 -6 4.3 3.9
1 -2 6 7.3 2.5
-1 2 6 3.9 3.6
1 2 -6 4.4 3.4
-1 -2 -6 6.5 4.5
-1 2 6 11.6 6.5
1 -2 6 2.2 2.8
-1 3 -6 2775.32 116.09
1 -3 -6 2793.82 119.79
1 3 -6 2804.22 115.59
1 -3 6 2749.23 112.39
1 3 -6 2398.96 107.69
1 -3 6 2739.23 110.39
-1 3 6 2804.12 116.89
-1 -3 -6 2793.92 120.09
-1 4 -6 136.49 12.9
-1 4 -6 143.19 11.4
1 -4 -6 117.89 16.2
1 4 6 169.68 16.6
-1 -4 -6 180.98 17.1
1 -4 6 140.59 11.8
1 4 -6 151.48 10.4
-1 4 6 161.48 19.9
1 4 -6 167.98 13.5
-1 4 6 166.28 19.1
-1 5 -6 2.9 3.2
-1 5 -6 8.6 4.3
1 5 6 5.9 4.7
1 -5 -6 -0.4 2.5
1 5 -6 10.3 4.1
1 5 -6 6.2 3.4
-1 -5 -6 0.5 2.9
-1 5 6 15.4 7.1
1 -5 6 10.9 4.3
-1 5 6 13.4 5.5
1 -6 -6 24 7.2
1 6 6 34.6 9.9
-1 6 -6 22.8 6.2
-1 6 -6 31 6.6
1 6 6 37.2 10.1
1 6 -6 27.2 5.9
1 6 -6 29.2 6.4
-1 6 6 31.7 8.6
-1 -6 -6 26.7 7.4
-1 6 6 21.1 8.7
-1 7 -6 66.69 9.7
1 7 6 92.39 17.9
1 -7 -6 64.79 10.8
1 7 6 52.49 11.6
-1 7 -6 79.19 12.4
1 7 -6 64.39 11.1
-1 -7 -6 71.79 11
1 7 -6 79.09 9.9
-1 7 6 105.19 18.7
-1 7 6 81.89 14.8
1 -8 -6 97.69 9.1
1 8 6 103.99 18.2
-1 8 -6 107.09 16.3
-1 8 -6 115.59 18.2
1 8 -6 57.09 14
-1 8 6 85.69 18.1
-1 8 6 94.69 16.9
-1 -8 -6 93.89 8.9
-1 9 -6 4.1 3.4
1 9 6 3.9 6.8
-1 9 -6 4.4 4.9
1 9 -6 4.1 5.6
-1 9 6 -0.9 5
1 9 -6 4.2 3
1 10 6 0.8 6.3
-1 10 -6 1.9 5.1
1 10 6 3.1 5.3
-1 10 6 1.1 4.9
1 10 -6 -4.5 3.5
-1 10 6 -3.2 5.4
1 11 6 -0.1 5.3
1 11 6 15 12.7
-1 11 -6 -4 5
1 11 -6 4.1 6.6
-1 11 6 -2.2 7.7
-1 11 6 -1 6
-1 12 -6 40.3 14
1 12 6 74.49 21.7
1 12 6 18.4 13.9
-1 12 6 47.9 14.7
1 12 -6 44.9 14.6
-1 12 6 34.2 15.8
1 13 6 44.2 15.2
1 13 6 18.3 17.3
-1 13 6 54.79 22.2
-1 13 6 36.6 15.4
1 13 -6 61.29 17.9
-1 14 -6 5.4 13.6
1 14 -6 0.3 12.4
2 0 -6 380.66 19.3
-2 0 6 381.56 19.1
-2 0 -6 396.16 27
2 0 6 391.06 26.4
2 -1 -6 21.7 6.9
-2 1 -6 25.6 6.8
2 1 6 36.5 8.5
2 -1 -6 20.7 4.7
-2 -1 -6 24.3 6.5
-2 1 6 27.4 7.8
-2 1 6 30.8 5.9
2 1 -6 36.6 8.9
2 -1 6 25.8 6.9
2 1 -6 25.9 3
-2 2 -6 934.71 48.5
2 -2 -6 938.11 49.8
2 2 6 948.81 50.29
2 -2 -6 923.01 45.5
2 -2 6 902.71 46.2
2 -2 6 933.91 42.7
-2 -2 -6 906.21 50.29
-2 2 6 1024.1 46.1
2 2 -6 874.01 46.9
-2 2 6 975.3 49.99
-2 3 -6 152.08 14.4
2 3 6 131.69 17.8
2 -3 -6 140.19 17.8
2 3 -6 142.39 8.4
2 3 -6 125.39 12.9
-2 3 6 151.08 19.4
2 -3 6 150.78 12.7
-2 3 6 151.18 16.6
-2 -3 -6 150.38 19.9
2 -3 6 147.09 11.9
2 4 6 68.69 13.6
2 -4 -6 53.19 10.2
-2 4 -6 58.39 10.2
-2 4 6 68.59 11.7
2 -4 6 78.79 10.6
-2 4 6 83.49 14.6
2 -4 6 67.59 6.8
-2 -4 -6 97.09 15.7
2 4 -6 78.49 7
-2 5 -6 1419.06 63.49
2 5 6 1355.16 69.09
-2 5 -6 1345.47 63.69
2 -5 -6 1335.97 66.99
2 5 -6 1369.96 60.39
2 -5 6 1324.67 63.49
-2 -5 -6 1386.86 67.59
-2 5 6 1379.96 69.39
-2 5 6 1305.77 68.09
2 -6 -6 191.18 18
-2 6 -6 226.68 18.4
-2 6 -6 222.88 17.2
2 6 6 244.38 21.7
-2 6 6 210.88 20.4
2 -6 6 227.08 19.5
-2 6 6 219.38 26.2
2 6 -6 221.68 16.7
-2 -6 -6 219.78 19
-2 7 -6 513.75 29.5
2 -7 -6 514.95 30.9
2 -7 -6 551.04 32
2 7 6 496.15 35.3
2 7 -6 518.75 31.2
-2 7 6 512.25 35.3
2 -7 6 501.85 33.7
-2 7 6 479.65 37.2
-2 -7 -6 483.45 30.3
-2 8 -6 337.07 22.1
2 8 6 344.27 28.6
-2 8 -6 321.77 26.3
2 -8 -6 341.37 20.9
-2 8 6 364.66 32.6
-2 8 6 301.97 26.9
2 8 -6 301.37 28.6
-2 -8 -6 363.16 21.1
-2 9 -6 1.4 4.7
2 9 6 5.2 5.7
-2 9 -6 2.7 3.4
2 9 -6 2.2 5.2
-2 9 6 -3.1 4
-2 9 6 4.1 5.1
-2 10 -6 57.19 9.6
2 10 6 84.39 18.2
2 10 6 64.49 18
-2 10 -6 86.59 17.5
2 10 -6 75.99 15.4
-2 10 6 68.59 18.2
-2 10 6 83.89 17
2 10 -6 89.59 10.7
-2 11 -6 81.39 17.6
2 11 6 75.09 17.9
2 11 6 89.79 23.2
2 11 -6 61.39 15.3
-2 11 6 56.59 15.7
-2 11 6 54.89 18.2
-2 12 -6 55.69 16.9
2 12 6 78.39 19.1
2 12 6 33.1 17.3
-2 12 6 66.59 21.7
2 12 -6 34.7 13.3
-2 13 -6 217.88 33.8
2 13 6 229.98 31.5
2 13 6 199.88 37.7
2 13 -6 177.58 28.8
-2 13 6 183.98 35.9
-2 14 -6 11.8 22.9
2 14 -6 -0.3 12.3
3 0 -6 19.4 4.4
3 0 -6 30.5 8.1
3 0 6 24.8 7.3
-3 0 -6 37.1 9.4
3 -1 -6 225.98 15.4
-3 1 -6 235.68 20.1
3 -1 -6 199.98 18.6
3 1 6 231.08 19.8
-3 1 6 203.38 14.7
3 -1 6 240.08 19.5
3 1 -6 211.18 12.4
3 1 -6 201.18 18
-3 -1 -6 198.38 19.4
3 -2 -6 1772.72 85.19
-3 2 -6 1718.93 84.09
3 -2 -6 1827.22 80.59
3 2 6 1890.41 86.39
3 -2 6 1775.92 82.49
-3 2 6 1867.91 80.69
-3 -2 -6 1862.41 87.29
3 -3 -6 304.47 22.2
3 -3 -6 304.07 24
3 3 6 288.27 23.7
-3 3 -6 270.97 22
-3 3 6 320.67 22.3
3 -3 6 298.87 19.9
-3 -3 -6 281.47 24
3 -3 6 318.07 21.1
-3 4 -6 1530.55 73.59
3 -4 -6 1635.64 76.39
3 -4 -6 1578.14 75.59
3 -4 6 1538.65 68.39
-3 -4 -6 1576.64 77.09
-3 4 6 1632.34 75.69
3 -4 6 1482.35 70.89
-3 4 6 1499.55 75.99
3 -5 -6 6.2 5.7
3 -5 -6 13.1 7.3
-3 5 -6 6.9 4.8
3 5 6 6.6 5.3
-3 5 6 2.5 4.1
-3 5 6 10.2 6.2
3 -5 6 0.1 3.2
3 -6 -6 283.87 22.9
3 -6 -6 269.77 22.2
-3 6 -6 274.67 21
-3 6 -6 282.27 21.8
3 6 6 289.57 25
3 6 -6 289.77 20
-3 6 6 287.87 24.7
-3 -6 -6 268.07 22.5
3 -6 6 261.27 21.9
-3 6 6 253.07 24.2
3 -7 -6 2.6 4
-3 7 -6 4.2 4.8
-3 7 -6 9.2 4.9
3 7 6 5.6 4.7
3 -7 -6 2.4 3.7
-3 7 6 -1.4 3.7
-3 -7 -6 9.2 4.8
3 7 -6 0.9 3.2
-3 7 6 4.2 5.3
3 -7 6 15.4 6.4
3 8 6 159.28 23.7
3 -8 -6 118.39 14.4
-3 8 -6 146.09 20.2
-3 8 -6 132.69 16.2
3 -8 -6 131.79 15.6
3 -8 6 122.09 18.6
3 8 -6 123.99 17.6
-3 -8 -6 121.89 12
-3 8 6 155.08 27.2
-3 9 -6 16.7 5.8
-3 9 -6 5.2 7.2
3 9 6 8.1 7.3
-3 9 6 0.5 5.6
3 9 -6 18.2 7.6
3 -9 6 28.6 10.4
3 10 6 9.6 9.9
-3 10 -6 4 6.4
-3 10 -6 4 3.9
3 10 6 9.6 8.1
-3 10 6 11.4 10.4
3 10 -6 2.6 3.9
3 10 -6 4.7 6.2
-3 11 -6 -3.1 5.4
3 11 6 -1.3 5.8
3 11 6 -0.7 8.1
-3 11 6 1.3 8.3
3 11 -6 9.8 8.8
3 11 -6 0.5 4
-3 12 -6 141.19 25.1
3 12 6 155.18 27.2
-3 12 -6 144.59 14
3 12 6 120.49 28.6
-3 12 6 140.99 29.2
3 12 -6 150.48 26
-3 13 -6 4.1 11.5
3 13 6 23.1 15.1
3 13 6 9.1 15.4
3 13 -6 4 10.8
-3 13 6 -0.2 11.8
-3 14 -6 -1.4 14.1
-4 0 -6 797.42 47.2
4 0 6 829.42 46.9
4 0 -6 810.22 39.1
4 -1 -6 347.07 27.2
-4 1 -6 401.76 29.2
4 -1 -6 395.96 23.8
4 1 6 331.37 27.4
4 -1 6 403.66 27.8
-4 -1 -6 433.96 30.6
-4 1 6 386.76 23.1
4 1 -6 382.86 21
4 -2 -6 5.4 4.7
4 -2 -6 7.5 4.5
-4 2 -6 1.5 3.6
4 2 6 10.6 5.8
4 -2 6 0.2 3.2
-4 -2 -6 0.8 3.7
-4 2 6 -0.4 2.9
4 3 6 2053.69 100.69
4 -3 -6 2160.48 97.49
4 -3 6 2150.38 96.19
4 -3 6 2234.88 95.69
-4 4 -6 59.49 12.2
4 -4 -6 95.99 16.4
4 -4 -6 72.79 13.5
4 4 6 77.09 14.9
4 -4 6 99.29 13.1
-4 -4 -6 59.19 12.2
4 -4 6 71.69 12.3
4 -5 -6 1245.58 63.49
-4 5 -6 1089.39 59.39
4 -5 -6 1201.08 63.69
4 5 6 1192.18 64.59
4 -5 -6 1137.09 60.99
4 -5 6 1190.18 59.99
-4 -5 -6 1129.39 62.09
-4 5 6 1206.78 63.09
4 -5 6 1152.68 52.29
4 -6 -6 -0.3 4.3
4 6 6 7.7 5.6
4 -6 -6 12.1 6
-4 6 -6 1.7 3.4
4 -6 -6 9.7 5.4
-4 6 6 6.8 6.1
4 -6 6 0.3 3.8
-4 -6 -6 2.2 3.9
-4 7 -6 16.1 6
4 -7 -6 24.8 7.9
4 7 6 7.1 7.5
4 -7 -6 23.6 8.1
4 -7 -6 3.4 6.7
4 -7 6 19.8 7.8
4 7 -6 7.7 5.5
-4 7 6 5.7 6.4
-4 -7 -6 20.1 6.8
-4 8 -6 4.1 5.8
4 -8 -6 10.1 5.1
4 -8 -6 10.6 5.5
-4 8 -6 21.3 7.3
4 8 6 7.4 6.6
-4 -8 -6 15.6 5.9
4 8 -6 27.6 8.5
4 -8 6 6.2 5.8
4 9 6 8.9 7.7
-4 9 -6 -1.2 2.6
-4 9 -6 2.7 6
4 9 -6 6.3 5.6
4 9 -6 0.8 3.9
4 -9 6 8.2 7.6
-4 9 6 -5.3 4.4
-4 10 -6 30 11.7
4 10 6 46.8 14.7
4 10 6 26.4 12.9
-4 10 -6 23.2 8
4 10 -6 39.3 9.9
4 10 -6 32.1 11.1
-4 10 6 21.1 11.6
4 -10 6 19.1 10.1
4 11 6 18.7 13
-4 11 -6 36.9 9.7
-4 11 -6 30.5 13.2
4 11 6 33.8 15.9
-4 11 6 57.09 19.5
4 11 -6 33.6 9.8
4 12 6 -1.3 7.9
-4 12 -6 -1.2 3.6
-4 12 -6 3 11.1
4 12 -6 2.7 7.7
4 12 -6 -1 4.9
4 13 6 36.9 28.4
4 13 6 60.99 32.3
-4 13 -6 54.69 20.2
-4 14 -6 22.5 19.5
-5 0 -6 28 9.4
5 0 -6 39.8 7.8
5 0 6 50.19 11.9
-5 1 -6 0.6 3.3
5 1 6 0 2.7
5 -1 -6 0.6 2.7
-5 -1 -6 2.1 4
5 1 -6 -1.4 1.9
5 -1 6 3.3 4.1
5 -2 -6 38.5 11.2
-5 2 -6 50.99 11.5
5 2 6 47 11
5 -2 6 48.7 9.8
-5 -2 -6 46.5 10.8
-5 2 6 59.09 10.6
-5 3 -6 1009.2 56.39
5 -3 -6 967 52.99
5 -3 -6 1024.1 56.59
5 3 6 962.8 57.29
-5 3 6 1040.1 53.59
5 -3 6 1016.1 52.69
-5 -3 -6 1047.9 58.59
5 -3 6 969.1 52.79
5 -4 -6 908.21 52.79
5 -4 -6 978.5 52.89
-5 4 -6 889.61 52.19
5 4 6 921.01 55.09
5 -4 6 897.51 48
-5 4 6 889.31 50.99
5 -4 6 941.31 50.59
5 -5 -6 183.88 24.6
5 -5 -6 191.58 23.9
5 5 6 186.98 24.7
-5 5 -6 196.08 19.6
5 -5 -6 156.08 21.4
5 -5 6 183.28 21.9
-5 5 6 156.18 21.3
-5 -5 -6 166.38 22.7
5 -5 6 196.08 15.5
-5 6 -6 157.08 21.6
5 -6 -6 196.18 25.2
5 -6 -6 150.88 19.9
5 -6 -6 199.48 25.3
5 6 6 145.69 21.4
-5 6 6 156.18 22.3
5 -6 6 202.58 24.8
-5 -6 -6 182.88 24
5 7 6 27.5 10.8
5 -7 -6 12.6 6.4
-5 7 -6 8.6 5.4
5 -7 -6 26.5 8.7
5 -7 -6 33.7 11.5
5 -7 6 18.3 8.6
-5 7 6 17.7 10.1
-5 -7 -6 11.2 7
-5 8 -6 509.35 35.6
5 -8 -6 553.74 43.7
5 -8 -6 508.95 32.7
5 8 6 514.95 40.5
5 -8 -6 512.85 33.4
5 -8 6 499.45 37.9
-5 -8 -6 543.45 33.1
5 8 -6 519.55 35.1
5 8 -6 478.75 34.9
5 -9 -6 58.79 10.8
-5 9 -6 52.69 12.5
5 9 6 64.19 16.2
-5 9 6 62.89 16.4
5 9 -6 55.89 13.3
5 9 -6 35 10.3
5 -9 6 51.49 13.9
-5 10 -6 13.5 7.8
5 10 6 33.3 12.9
5 10 -6 26 9.7
5 10 -6 11.7 7.6
5 -10 6 11.8 9.8
5 11 6 -2.3 6.8
5 11 6 18.7 14
-5 11 -6 16.9 8.3
-5 11 -6 4 8.3
5 11 -6 12.1 8.6
-5 11 6 5.9 10.6
5 11 -6 -0.8 6.8
5 12 6 18.3 13.8
5 12 6 6.3 13.2
-5 12 -6 8.4 7.2
-5 12 -6 10.3 11.3
-5 12 6 16.8 15.2
5 12 -6 8.1 9.7
5 12 -6 7.4 7.8
-5 13 -6 -0.9 12.7
5 13 6 2.6 18
5 13 6 0.6 12.5
-5 13 6 -2.8 15.3
5 13 -6 -1.8 10.6
6 0 6 61.19 14.2
6 0 -6 31.8 7.6
-6 0 -6 25.2 8.9
6 1 6 40.5 11.4
6 -1 -6 14 6.7
-6 -1 -6 10.6 6.6
6 1 -6 18.9 5.3
6 -1 6 12.2 5.6
-6 2 -6 194.78 26.2
6 -2 -6 151.18 18.5
6 -2 -6 158.68 22.1
6 -2 -6 211.48 25.7
-6 -2 -6 174.18 25.8
6 -2 6 141.89 23
6 -3 -6 189.48 25.2
6 -3 -6 193.28 25.2
6 -3 -6 275.27 23
6 3 6 258.27 25.3
-6 3 -6 278.67 31.9
-6 3 6 261.87 21.9
6 -3 6 284.17 22.9
-6 -3 -6 249.68 25.2
6 -3 6 237.68 21.9
6 -4 -6 540.55 36.4
6 -4 -6 501.95 36.7
-6 4 -6 467.05 35.8
6 -4 -6 518.35 38.3
6 4 6 487.15 38.1
-6 -4 -6 504.65 38
6 -4 6 505.05 33.2
6 -4 6 529.05 35.2
-6 4 6 521.45 35.5
-6 5 -6 521.05 38
6 -5 -6 525.45 38.7
6 -5 -6 550.84 38.4
6 5 6 520.25 40.2
6 -5 -6 482.65 37
-6 -5 -6 495.35 37.9
6 -5 6 587.04 33.5
-6 5 6 522.05 37.4
6 -5 6 514.15 36.3
-6 6 -6 758.52 47.7
6 -6 -6 681.33 45.1
6 -6 -6 798.42 50.49
6 6 6 730.53 50.29
6 -6 -6 746.03 47.8
-6 -6 -6 777.82 48
6 -6 6 691.83 36.9
-6 6 6 688.03 47.1
6 6 -6 724.03 47
6 -6 6 726.83 46.6
6 -7 -6 55.49 13.7
-6 7 -6 27 9.4
6 7 6 47.4 14
6 -7 -6 26.3 8.5
6 -7 -6 53.09 13.8
6 7 -6 28.9 10.4
-6 -7 -6 46.3 11.2
6 -7 6 25.2 9.5
6 8 6 -2.1 4.3
-6 8 -6 21 8.7
6 -8 -6 11.7 6.8
6 -8 -6 8.7 6.4
6 -8 -6 10.2 9.8
6 8 -6 3.3 5.8
6 -8 6 12.4 8.1
-6 8 6 15 9.7
-6 -8 -6 12 6.8
6 -9 -6 -3.6 5.1
6 -9 -6 1.7 3.5
-6 9 -6 -1.7 2.9
6 9 6 6.8 7.9
6 -9 -6 0.9 3.3
6 9 -6 0.3 5.5
6 -9 6 1.8 6.3
6 9 -6 1.9 5.3
-6 9 6 3.6 7.2
6 10 6 9.2 10.6
-6 10 -6 13.7 8.6
6 10 -6 10.5 8.6
6 10 -6 34.8 12.6
6 -10 6 8.8 8
-6 10 6 25.8 14.5
-6 11 -6 -3.5 4
6 11 6 2.2 9
6 -11 6 11.1 9.9
6 11 -6 2.6 7.7
6 11 -6 1.3 6.7
-6 11 6 10.3 13.3
6 12 6 29.5 18.3
6 12 6 35.5 16.2
-6 12 -6 59.59 14.2
-6 12 6 44.4 21.7
6 12 -6 15.7 12.4
6 13 6 3.9 18.3
6 13 -6 14.5 15.2
-7 0 -6 173.48 24.9
7 0 6 206.48 25.8
7 0 -6 239.58 30.5
7 0 -6 236.38 19.2
7 -1 -6 133.99 20.6
7 -1 -6 158.58 18.7
7 1 6 223.08 29.7
-7 1 -6 131.39 21.8
-7 -1 -6 167.88 26.3
7 1 -6 177.68 16.2
7 1 -6 193.18 28
7 -1 6 176.18 24.8
-7 2 -6 371.86 32.3
7 -2 -6 378.86 28.1
7 -2 -6 362.66 32.6
7 2 6 389.66 33.1
7 -2 6 344.37 29.8
7 2 -6 361.06 32.2
-7 -2 -6 384.76 33.4
-7 3 -6 61.09 15.5
7 -3 -6 82.89 15.1
7 -3 -6 69.29 14.8
7 3 6 54.39 12.5
7 -3 -6 69.79 15.8
7 -3 6 120.69 25.3
-7 -3 -6 83.89 18.4
7 -3 6 88.29 15
7 3 -6 112.09 20.5
7 -4 -6 3.3 5
7 -4 -6 1.3 4.4
7 -4 -6 -0.3 3.7
-7 4 -6 -2.2 3.1
7 4 6 0.4 3.8
7 -4 6 -0.9 3.2
-7 -4 -6 3.5 5.5
7 -4 6 -4 3.4
7 4 -6 -2.8 3.9
-7 5 -6 6.8 5.4
7 -5 -6 1 5.2
7 -5 -6 2.2 4.9
7 -5 -6 4.3 5
7 5 6 5.5 6.3
7 -5 6 3 5.3
-7 -5 -6 21.6 10.1
7 5 -6 3 5.6
7 -5 6 9.6 6.1
-7 5 6 10.1 7.3
7 -6 -6 48.5 12.1
7 -6 -6 55.99 14.5
7 6 6 11.9 7.2
-7 6 -6 62.99 14.7
7 -6 -6 50.99 14
-7 -6 -6 49.3 13.1
7 6 -6 42.1 13.7
7 -6 6 32.5 10.5
-7 6 6 31.6 12.3
7 -6 6 40.2 9.2
7 7 6 5.8 7.1
7 -7 -6 2.1 5
7 -7 -6 4.1 5.3
-7 7 -6 3.4 5.1
7 -7 -6 -1 5.3
7 7 -6 5.8 7.1
7 -7 6 4.7 7.1
-7 7 6 -0.9 5.4
-7 -7 -6 9.7 6.6
7 -8 -6 78.59 15.8
-7 8 -6 52.29 15.5
7 -8 -6 71.69 17.8
7 8 6 87.09 19.5
7 -8 -6 63.19 14.9
-7 -8 -6 87.59 15.7
7 8 -6 72.89 16.7
-7 8 6 44 15.1
7 -8 6 73.29 16.6
-7 9 -6 9.6 7.5
7 -9 -6 -5.9 4.7
7 -9 -6 7.6 5.8
7 -9 -6 4.1 5.4
7 9 6 6.1 9.2
7 9 -6 -0.8 5.1
7 -9 6 9.9 8.4
-7 9 6 10.8 10.2
-7 10 -6 13 8.4
7 -10 -6 27.3 12.9
7 10 6 26.8 14.8
7 -10 6 15.6 10.4
-7 10 6 10.5 12.2
7 10 -6 11.6 10.5
7 10 -6 4.3 9.7
7 11 6 110.79 26.5
-7 11 -6 84.79 17.8
7 11 -6 60.89 18
-7 11 6 87.29 27.4
7 -11 6 93.39 21.8
7 11 -6 80.59 19.6
7 12 6 9.4 15.7
7 12 6 11.5 20.1
-7 12 -6 5.8 7.2
7 -12 6 1.4 9.2
7 12 -6 8 12.1
7 12 -6 2 11.8
8 0 6 896.51 57.69
8 0 -6 910.81 49.99
-8 0 -6 857.01 58.29
8 0 -6 906.01 59.29
8 -1 -6 69.29 15.6
8 1 6 92.59 19.4
8 -1 -6 111.99 17.6
-8 1 -6 86.09 17.5
8 1 -6 101.99 20.4
8 -1 6 114.19 21.5
8 1 -6 117.69 16.9
-8 -1 -6 118.09 22.4
-8 2 -6 167.38 28.2
8 2 6 158.28 26.1
8 -2 -6 142.89 19.4
8 -2 -6 149.09 26.2
8 2 -6 115.19 21.1
-8 -2 -6 116.49 19.8
8 -2 6 114.09 20.4
8 -3 -6 719.33 46.4
8 3 6 705.73 52.29
8 -3 -6 746.13 52.19
-8 3 -6 728.23 51.49
8 -3 -6 743.03 49.8
8 -3 6 706.23 46.5
-8 -3 -6 674.73 51.09
8 -3 6 802.32 49.8
8 3 -6 737.53 53.99
-8 4 -6 356.96 33.5
8 -4 -6 355.56 31.7
8 -4 -6 366.96 33.9
8 -4 -6 346.37 30.3
8 -4 6 384.86 31.2
-8 -4 -6 332.37 32.7
8 4 -6 365.36 34.1
8 -4 6 348.77 30.3
-8 5 -6 69.19 18.4
8 -5 -6 49.3 13.8
8 -5 -6 39.2 11.8
8 -5 -6 19.3 8.2
8 5 6 47 18.8
8 5 -6 61.39 17
-8 -5 -6 28.8 11.1
8 -5 6 35.1 9.8
8 -5 6 20 9.4
8 -6 -6 76.59 16.2
8 -6 -6 71.29 16.1
8 6 6 77.99 20.7
8 -6 -6 87.49 19.9
-8 6 -6 65.49 17.4
8 -6 6 95.49 15.1
-8 -6 -6 69.29 16.5
8 -6 6 109.59 20.7
8 6 -6 77.99 20
-8 6 6 54.19 14.7
8 7 6 7.6 8.7
8 -7 -6 -0.7 4.4
8 -7 -6 5.4 6.3
8 -7 -6 12.1 9.1
-8 7 -6 1.5 5.8
8 -7 6 -0.4 2.6
8 -7 6 4.7 6.7
-8 -7 -6 4.3 5.9
-8 7 6 2.8 7.7
8 7 -6 1.2 6.2
8 8 6 78.79 19.8
-8 8 -6 60.49 17.1
8 -8 -6 60.39 18.3
8 -8 -6 45.7 12.6
8 -8 -6 64.59 14
8 -8 6 85.49 18.5
-8 8 6 67.89 19.1
8 8 -6 24.8 11.4
-8 -8 -6 52.39 12.9
8 -9 -6 -0.2 4.2
8 -9 -6 1.8 7.8
8 9 6 -4.3 7.1
-8 9 -6 -1.8 3.8
8 -9 -6 -1 4.6
8 -9 6 -5.4 4
-8 9 6 -3.2 7
8 10 6 49.8 24.2
8 -10 -6 81.19 21.9
-8 10 -6 51.49 15.7
-8 10 6 46.6 19.3
8 10 -6 65.59 18.7
8 -10 6 41.9 15.6
8 11 6 -3.1 11.5
-8 11 -6 0.1 5.3
8 -11 6 3.2 9.1
8 11 -6 0.5 9.6
8 11 -6 -1.3 9.5
-8 11 6 11.7 16.3
-8 12 -6 72.39 18.8
8 -12 6 53.99 19.6
8 12 -6 36.1 18.1
9 0 6 57.69 16.6
-9 0 -6 52.99 16.7
9 0 -6 65.29 13.4
9 0 -6 26.3 10.3
-9 1 -6 28.9 11.6
9 -1 -6 27.6 9.6
-9 -1 -6 6.6 7.9
9 1 -6 12.3 8.9
9 1 -6 29.3 8.8
9 -1 6 56.89 15.8
9 -2 -6 447.96 39.3
-9 2 -6 345.77 35.4
9 -2 -6 363.96 30.5
9 2 6 395.26 36.9
9 -2 6 436.96 36.5
-9 -2 -6 346.17 35.5
-9 3 -6 100.29 19.6
9 -3 -6 117.79 24.8
9 -3 -6 118.99 19.7
9 -3 6 135.89 22.7
9 -3 6 143.39 24.2
-9 -3 -6 66.59 16
-9 4 -6 34.4 13.4
9 -4 -6 29.7 11.4
9 -4 -6 44.7 12.8
9 -4 -6 13.8 8.7
9 -4 6 27.2 10.5
-9 -4 -6 26.2 11.3
9 4 -6 22.1 10.2
9 -4 6 17.3 9.3
-9 5 -6 46.4 15.5
9 -5 -6 44.3 15.5
9 -5 -6 38.1 12.4
9 -5 -6 43.7 13.9
9 -5 6 21.7 10.6
9 -5 6 43.9 13.3
9 5 -6 34.2 13.1
-9 -5 -6 54.79 14.9
-9 6 -6 71.29 20
9 -6 -6 56.39 15.5
9 -6 -6 63.29 15.5
9 -6 -6 88.09 19.5
-9 -6 -6 68.89 16.1
9 -6 6 65.69 14.2
9 6 -6 51.69 16.7
9 -7 -6 6 8
9 7 6 8 10.8
9 -7 -6 -0.8 4.3
-9 7 -6 7.9 8.2
9 -7 -6 6.7 8.1
9 -7 6 6.5 7.6
-9 -7 -6 7.2 7.9
9 -7 6 7 5
-9 8 -6 4.5 6.5
9 -8 -6 29.9 14.5
9 8 6 23.2 14.2
9 -8 -6 42.2 11.6
9 -8 6 29.9 13
-9 8 6 15.1 11
-9 -8 -6 11.2 8.1
9 8 -6 38.4 15.6
9 -9 -6 68.89 15.5
-9 9 -6 66.69 18.6
9 -9 -6 59.89 18.9
9 -9 -6 77.89 16
9 9 6 23.2 17.8
9 -9 6 56.99 17.3
9 9 -6 59.89 18.6
-9 9 6 19.7 13.1
-9 10 -6 5.1 7.7
9 10 6 9.3 14.1
9 -10 -6 4.2 5
9 -10 -6 7.7 11
9 -10 6 10 9.8
9 10 -6 -3.6 11.7
-9 10 6 3.3 11.9
9 -11 -6 9.4 12.2
-9 11 -6 10.5 10.3
9 11 -6 3.4 13.1
9 -11 6 27.2 22.3
9 11 -6 2.6 17.3
-9 12 -6 0.8 8
9 -12 6 2.6 10.3
10 0 -6 30.4 9.7
10 0 6 15.3 8.3
-10 0 -6 22.2 9.6
-10 1 -6 36.9 12.5
10 -1 -6 35.2 11.4
-10 -1 -6 71.39 16.7
10 1 -6 59.99 12.8
-10 2 -6 96.09 22.8
10 2 6 84.99 28.1
10 -2 -6 147.49 29.8
10 -2 -6 117.39 20.9
10 -2 6 68.59 16.7
-10 -2 -6 60.79 15.2
10 -3 -6 334.67 30.3
-10 3 -6 358.86 46.3
10 -3 -6 253.57 38.2
10 -3 6 258.87 35
-10 -3 -6 270.97 35.8
10 -3 6 352.36 32
10 4 6 -1.2 4.6
10 -4 -6 2.2 6.4
10 -4 -6 7.5 7.7
-10 4 -6 9 7.6
-10 -4 -6 12.5 9
10 4 -6 23.9 13.4
10 -4 6 -0.3 5.3
10 -5 -6 240.38 37.2
10 -5 -6 229.88 31.3
10 5 6 144.69 26.2
10 -5 -6 179.08 26.7
-10 5 -6 239.98 35.6
-10 -5 -6 194.78 29.3
10 -5 6 239.78 31.5
10 -5 6 207.08 30.5
10 -6 -6 32.9 12.2
10 6 6 35.6 17.3
-10 6 -6 52.59 16.8
10 -6 -6 51.99 15.7
10 -6 -6 30.9 14.6
10 6 -6 42.5 16.3
-10 -6 -6 32.1 12.6
10 -6 6 52.99 15.6
10 -6 6 46.2 13.1
-10 7 -6 103.69 23.2
10 -7 -6 130.19 25.6
10 -7 -6 147.79 26.1
10 -7 -6 146.49 23.7
10 7 6 110.89 25.2
10 -7 6 99.19 16.9
10 -7 6 134.49 25.6
-10 -7 -6 117.09 22.6
10 7 -6 104.99 24.9
10 -8 -6 6.4 7.8
10 -8 -6 0 5.8
10 8 6 -3 8.2
10 -8 -6 3.7 8.8
-10 8 -6 -3.1 4.6
10 -8 6 1.5 6.6
10 -8 6 0.5 3.7
-10 -8 -6 -1.9 4
10 8 -6 -2.6 8.3
10 -9 -6 2.2 6.6
10 -9 -6 26.1 14
10 9 6 -0.2 12
-10 9 -6 -3.7 4.7
10 -9 -6 -0.8 6
10 9 -6 -2.1 9.9
10 -9 6 -5.4 5.9
10 -10 -6 55.29 19.7
10 -10 -6 46.3 11.1
-10 10 -6 26.2 14.3
10 -10 6 26.1 15.6
10 10 -6 31.3 19.7
-10 11 -6 16.6 12.3
10 -11 -6 3 11.1
10 -11 6 56.79 20.1
11 0 -6 324.97 44.9
11 0 6 518.95 69.79
11 0 -6 378.16 32.3
11 -1 -6 0.5 6.1
11 -1 -6 7.8 6.4
11 1 6 -0.3 5.1
-11 1 -6 11.5 10
11 1 -6 7.5 7.7
11 1 -6 4.4 6.5
-11 -1 -6 -1 4.3
11 -2 -6 0.6 4.8
-11 2 -6 1.1 6.1
11 2 6 1.9 5.5
11 -2 -6 -2.1 4.7
-11 -2 -6 -4.7 3.7
11 -2 6 6.3 7.9
11 2 -6 -3.3 9.4
-11 3 -6 30.2 12.1
11 3 6 13 10
11 3 -6 16.7 10.8
-11 -3 -6 36.8 14.5
11 -3 6 6.4 8
11 -3 6 39.7 13.8
-11 4 -6 296.67 39.4
11 4 6 199.18 33.2
11 -4 -6 282.67 34.9
11 -4 6 264.57 34
11 4 -6 275.47 41
11 -4 6 302.17 37
11 -5 -6 26.7 13.1
11 5 6 1.1 8.8
11 -5 -6 36.7 14
11 -5 -6 15.3 9.9
-11 5 -6 38.6 15
11 5 -6 37.1 17.1
-11 -5 -6 11.9 10.3
11 -5 6 23.6 11.7
11 -5 6 18.1 10.7
-11 6 -6 81.89 23
11 -6 -6 84.49 21.2
11 6 6 56.29 21.3
11 -6 -6 81.49 18.2
11 -6 6 71.49 16.8
-11 -6 -6 86.49 20.8
11 -6 6 68.99 19
11 6 -6 52.49 18.5
-11 7 -6 18.5 11.9
11 7 6 4.9 10.7
11 -7 -6 26.3 11
11 -7 -6 8.9 10.5
11 -7 -6 3.8 8.4
11 -7 6 5.8 8.8
-11 -7 -6 9.6 9
11 7 -6 0.6 11
11 -7 6 13.7 8.5
11 -8 -6 56.19 16.9
11 -8 -6 23.9 14.6
-11 8 -6 60.19 19.6
11 8 6 11.6 16.4
11 -8 -6 55.79 15.8
11 8 -6 25.8 17.9
-11 -8 -6 52.29 14.8
11 -8 6 54.79 17.4
11 -8 6 49.8 10.8
11 -9 -6 25.8 14.5
11 -9 -6 37.4 13
-11 9 -6 7 9.9
11 -9 6 13.3 11
11 -10 -6 6.6 10.7
-11 10 -6 -2.9 6.7
11 -10 6 -5.3 7.4
-11 11 -6 7.5 11
11 -11 -6 -0.3 10.7
11 -11 6 -2.1 9.5
-12 0 -6 47.6 17.8
12 0 6 2.5 8.2
12 0 -6 40.6 15
12 0 -6 39.3 16.7
12 -1 -6 0.5 5.9
12 1 6 8.6 8.8
12 -1 -6 18 16.1
-12 -1 -6 13 9.9
12 1 -6 4.7 10.6
12 1 -6 15.5 9.5
12 -1 6 -0.7 6
12 -2 -6 -3.6 6.5
12 2 6 -2.9 5.7
-12 2 -6 -3.3 6.2
12 -2 -6 -2 5.1
12 -2 6 -3.7 4.4
12 2 -6 0.2 5.5
12 -2 6 3 9.5
-12 -2 -6 -4.7 5.1
12 2 -6 -2.6 7.8
12 -3 -6 161.18 32.7
12 3 6 135.99 29.3
12 -3 -6 170.08 26.6
-12 3 -6 257.07 43.3
12 -3 6 231.38 34.6
12 3 -6 145.29 28.7
-12 -3 -6 122.29 25.2
12 4 6 133.49 26.9
-12 4 -6 182.88 31.1
12 -4 -6 195.28 33.7
12 -4 -6 158.18 26.7
-12 -4 -6 159.28 32.2
12 -4 6 191.38 30.2
12 -4 6 201.58 30.6
12 4 -6 208.28 39.4
12 5 6 218.88 41.3
12 -5 -6 273.47 38.5
12 -5 -6 200.08 31.2
-12 5 -6 234.68 39.5
12 -5 6 246.68 36.3
12 5 -6 253.97 41.8
-12 -5 -6 235.48 35.1
12 -5 6 195.28 31
12 -6 -6 65.29 19.6
-12 6 -6 57.49 20.6
12 6 6 12.6 14.1
12 -6 -6 38.4 13.5
-12 -6 -6 67.09 19.8
12 -6 6 48.5 16
12 -6 6 33.3 13.2
12 6 -6 31.9 16.8
12 -7 -6 44.5 17.1
12 7 6 73.99 28.4
12 -7 -6 90.09 21.3
-12 7 -6 55.39 21.4
12 -7 -6 47.6 17
12 7 -6 38.5 21.8
-12 -7 -6 81.89 20.4
12 -7 6 80.69 21.9
-12 8 -6 45.6 26.7
12 -8 -6 12.4 12.6
12 -8 -6 13.1 10.1
12 -8 6 1 5
-12 9 -6 6.2 11.4
12 -9 -6 12.7 12.8
12 -9 -6 10.4 9.5
12 -9 6 -3.2 7.8
12 -10 -6 1.6 12.1
12 -10 -6 3.4 6.6
-12 10 -6 3.5 9.5
12 -10 6 -3.4 9.2
13 0 -6 4.7 11.1
13 0 6 5 10.7
13 0 -6 11.2 9.7
-13 0 -6 1.1 5.8
13 -1 -6 0.2 6.8
-13 1 -6 -3.6 4.2
13 -1 -6 -4.5 7.6
13 1 6 6.5 9.6
13 1 -6 -3.2 9.3
13 -1 6 -0.4 7.9
13 1 -6 -3.7 5.1
-13 -1 -6 1.5 6.1
13 -2 -6 54.19 16.7
13 2 6 12.1 11.7
13 -2 -6 12.6 15.1
-13 2 -6 43.4 16.4
13 -2 6 34 15.5
13 -2 6 47.1 16.4
13 2 -6 6 16.7
-13 -2 -6 18.1 12.4
13 2 -6 40.7 14.1
13 -3 -6 84.79 19.5
13 3 6 39.8 16.7
-13 3 -6 64.29 22.4
13 -3 -6 61.99 22.1
13 -3 6 61.39 17
-13 -3 -6 83.79 24.7
13 -3 6 13.1 12.6
13 3 -6 45.1 19.1
13 4 6 -3.6 8.9
13 -4 -6 1.9 8
13 -4 -6 3.5 6.5
13 -4 -6 11.2 12.4
-13 4 -6 -2.7 5.2
13 -4 6 19.2 11.6
13 4 -6 15 16
-13 -4 -6 21.2 13.4
-13 5 -6 25.5 14.2
13 -5 -6 11 11.8
13 -5 -6 0 5.9
13 -5 -6 6.8 14.3
13 5 -6 19.3 21.9
13 -5 6 -4.4 6.3
13 -5 6 3.4 9.7
-13 -5 -6 3.3 8.5
13 -6 -6 5.4 9.5
13 -6 -6 22.4 12.3
-13 6 -6 6.5 11.3
13 -6 -6 -3.3 9.6
13 -6 6 7.3 10.7
13 -6 6 6.7 10.9
13 6 -6 1.7 18.8
-13 -6 -6 8.2 10
13 -7 -6 1 7.8
-13 7 -6 -5.8 6.4
13 -7 -6 -0.8 5.7
-13 -7 -6 -3.2 5.6
13 -7 6 6.9 8.8
-13 8 -6 2.7 8.7
13 -8 -6 3.3 10.1
13 -8 -6 0.2 6.3
13 -8 6 0.3 9.4
-13 9 -6 19 15.2
13 -9 -6 13.8 14.8
13 -9 -6 8.2 9.5
13 -9 6 6.3 10.5
14 0 -6 -3.8 10.3
-14 0 -6 2 8.8
14 0 6 -2.3 12.8
14 0 -6 9.8 9.8
14 -1 -6 -2.2 5.9
-14 1 -6 -1.7 5.8
14 1 6 -1.2 9.5
14 -1 -6 1 13.6
14 1 -6 -1.4 6.6
14 -1 6 6.1 11.9
14 1 -6 0 11.2
-14 -1 -6 -3.7 6
14 2 6 80.89 27.3
-14 2 -6 143.39 33.4
14 -2 -6 128.99 26
14 2 -6 133.89 24.8
14 -2 6 142.59 27.6
14 -2 6 110.79 26.7
14 2 -6 110.79 30.5
-14 -2 -6 138.49 31.8
14 -3 -6 14.5 15.8
14 -3 -6 10.4 10.8
-14 3 -6 17.1 12.8
14 3 -6 38 15.3
-14 -3 -6 31.3 16
14 3 -6 19.3 21.8
14 -3 6 39.9 15.1
14 -3 6 4 12.7
-14 4 -6 67.99 23.1
14 -4 -6 24.7 17.7
14 -4 -6 83.59 22.4
14 -4 -6 66.49 19.6
-14 -4 -6 53.09 19.4
14 -4 6 69.09 24.8
14 -5 -6 4 9.3
14 -5 -6 10.1 14.9
-14 5 -6 8.5 10.9
14 -5 6 18.1 12
-14 -5 -6 16.3 12
14 -6 -6 61.29 20.5
14 -6 -6 92.09 21.1
-14 6 -6 98.39 26.8
-14 -6 -6 134.19 32.7
14 -6 6 102.99 27.1
-14 7 -6 20.7 15
14 -7 -6 10.3 13.3
14 -7 -6 19.1 12.5
14 -7 6 28.8 15.9
15 0 6 45.2 23
15 0 -6 49.7 17.9
15 0 -6 31.8 24.9
-15 0 -6 54.19 20.5
15 1 6 -3.5 16.2
-15 1 -6 1.2 9.8
15 -1 -6 0.9 7.5
15 -1 6 -4.5 6.5
15 -1 6 -4.2 14.2
15 1 -6 5.4 7.6
-15 -1 -6 -6.5 6.3
15 -2 -6 9.3 11.1
15 -2 -6 10.1 18.6
-15 2 -6 -3 7
-15 -2 -6 -7.8 6.5
15 2 -6 15.7 12
15 -2 6 17.3 12.7
15 -2 6 4.9 15.4
15 -3 -6 -3.6 14.9
15 -3 -6 3.1 11.5
-15 3 -6 4.7 11.5
15 -3 6 6.7 9.9
-15 -3 -6 -1.9 6.5
15 -3 6 -1.8 14.3
15 3 -6 3.7 9
15 -4 -6 63.99 23.7
15 -4 -6 24.4 23.2
-15 4 -6 78.89 28
15 -4 -6 111.49 26.7
15 -4 6 62.99 21.2
-15 -4 -6 16.2 14.2
15 4 -6 117.89 26.4
15 -5 -6 158.58 31.4
-15 5 -6 126.79 32.2
15 -5 -6 128.79 27.9
15 -5 6 182.08 34.6
-15 6 -6 31 17.9
15 -6 -6 27.8 16.6
15 -6 -6 -1.9 6
15 -6 6 12.7 12.9
16 0 -6 48.1 18.8
-16 0 -6 60.09 22.5
16 -1 -6 4.8 9.9
-16 1 -6 -3.7 7.8
-16 -1 -6 -5.6 6.8
16 1 -6 -3.4 7.5
16 -1 6 13 12.7
-16 2 -6 21.6 15.2
16 -2 -6 -0.1 9.8
16 -2 6 0.9 9.9
16 2 -6 3.8 10.2
-16 -2 -6 13.1 13.4
16 -3 -6 39.2 18.6
-16 3 -6 -0.6 9.9
16 -3 6 -0.4 11.4
-16 -3 -6 5.2 10.7
16 3 -6 -0.1 9.4
-16 4 -6 111.49 33.5
16 -4 -6 67.19 23.7
16 -4 -6 108.69 28.8
16 4 -6 110.49 26.8
16 -4 6 80.89 25.2
-16 -4 -6 81.79 24.7
0 0 -7 0.3 2.7
0 0 7 0.8 3.1
0 1 7 1.8 3.1
0 1 -7 -2.7 1.7
0 -1 -7 -1.4 3.3
0 -1 7 -1.2 2.6
0 2 -7 67.19 11.1
0 -2 7 46.5 9
0 -2 -7 40.2 8.9
0 -2 7 56.49 3.6
0 3 7 1.8 3.5
0 3 7 0.6 3.2
0 -3 -7 -2.8 3
0 3 -7 -0.3 2.4
0 -4 -7 155.38 19.7
0 4 7 184.58 20.7
0 4 -7 187.78 15.5
0 4 7 130.59 18
0 5 -7 -2.5 1.3
0 5 7 6.1 4.9
0 5 -7 -2.8 1.4
0 5 7 1.7 4.2
0 6 -7 25 6.7
0 -6 -7 33.5 9.7
0 6 7 36.5 10.7
0 6 -7 21.3 5.8
0 6 7 58.99 13.6
0 7 -7 0.3 2.9
0 7 -7 -0.8 2.2
0 7 7 -1.2 2.9
0 -7 -7 -2.4 2
0 7 7 5.9 6.3
0 8 7 796.62 51.49
0 8 -7 805.02 40.6
0 9 -7 -2.1 3
0 9 7 1.1 5.3
0 9 7 3.2 6.9
0 10 7 82.29 17.2
0 10 7 70.39 18.4
0 10 -7 45.6 12.4
0 10 -7 55.59 9
0 11 7 -0.4 8
0 11 7 1.7 5.9
0 11 -7 2.1 5.9
0 12 7 -0.5 7.8
0 12 -7 1.6 7.3
0 12 7 -3.9 9.2
0 13 7 1.5 14.2
0 13 -7 2.6 10.1
-1 0 7 -0.5 1.4
-1 0 7 -1.5 2.5
1 0 7 2 3.6
1 0 -7 0.5 3.3
-1 0 -7 2.1 3.4
1 1 7 384.46 26.8
-1 1 -7 349.47 26
1 -1 -7 347.07 26
-1 -1 7 393.06 25.6
1 1 -7 385.96 26.5
-1 1 7 384.96 21.2
1 -1 7 396.66 25.9
-1 -1 -7 396.66 28.1
1 2 7 -0.2 2.7
1 -2 -7 -0.7 2.6
-1 2 -7 1 2.7
-1 -2 -7 -1.4 2.6
1 -2 7 1.1 3.1
1 -2 7 0.2 1.8
1 2 -7 2.6 3.2
-1 2 7 2 2.8
-1 2 7 1.8 3.6
1 -3 -7 1364.76 65.89
1 3 7 1208.28 64.09
1 -3 7 1277.17 58.19
-1 3 7 1222.08 64.19
-1 -3 -7 1312.77 65.89
1 -3 7 1302.97 54.29
1 3 -7 1101.69 59.59
-1 3 7 1302.97 60.99
1 -4 -7 311.07 24.8
1 4 7 320.77 25.2
-1 4 -7 317.37 22.1
-1 4 7 276.87 23.8
1 4 -7 305.37 21.2
-1 4 7 288.87 22.9
1 4 -7 288.87 15.4
-1 -4 -7 312.37 25
1 -4 7 299.47 18.1
-1 5 -7 937.01 47.3
-1 5 -7 949.8 44.2
1 -5 -7 845.32 50.99
1 5 7 891.11 51.89
1 5 -7 953.9 46.6
-1 -5 -7 804.82 51.69
-1 5 7 885.71 51.19
1 -5 7 945.01 44.9
1 5 -7 939.81 42.3
-1 5 7 957.4 52.99
1 -6 -7 0.8 3.5
1 6 7 2.9 5.5
-1 6 -7 -0.3 2.6
1 6 7 1.6 3.6
-1 6 -7 1 2.8
1 6 -7 0 2.3
1 6 -7 3.3 3.2
-1 6 7 -0.5 4.1
-1 -6 -7 1.7 4.1
-1 6 7 0.8 3.6
1 7 7 245.18 29.7
-1 7 -7 255.97 18.7
-1 7 -7 247.38 19.9
1 -7 -7 225.88 20
1 7 7 283.37 25.1
-1 7 7 283.47 31.5
-1 -7 -7 250.97 20.7
1 7 -7 223.88 17.3
1 7 -7 262.87 19.5
-1 7 7 274.87 24.8
1 -8 -7 84.69 16.8
-1 8 -7 54.29 11.1
1 -8 -7 60.09 10.7
1 8 7 89.59 24.1
-1 8 -7 75.69 11.1
1 8 -7 67.19 11.9
1 8 -7 70.69 10.2
1 9 7 -0.4 5.4
1 9 7 16.6 8.9
-1 9 -7 29.7 9.5
-1 9 -7 19.7 6.2
1 9 -7 14.3 7.5
-1 9 7 9.7 8.5
-1 9 7 7.5 7
1 9 -7 25.9 6.1
-1 10 -7 1.4 2.9
-1 10 -7 -1.7 4.4
1 10 7 -2.5 4.1
1 10 7 3.1 7.4
1 10 -7 3.2 5.8
-1 10 7 -0.7 6.9
-1 10 7 3.2 6.2
1 10 -7 2.4 2.8
-1 11 -7 9.8 9.4
1 11 7 2.6 6.7
1 11 7 14.6 11.6
-1 11 7 14.7 10.2
-1 11 7 20.6 13.5
1 11 -7 3.7 6.7
-1 12 -7 10.4 9.6
1 12 7 17.6 12
1 12 7 6.5 12.2
-1 12 7 4.7 9.1
-1 12 7 9.4 12.4
1 12 -7 9.4 9.2
1 13 7 2.1 13.6
-1 13 -7 14 13.1
1 13 -7 28 14.7
-1 13 7 -4.2 12.6
-2 0 7 1.8 2
2 0 -7 -4.2 1.7
-2 0 -7 -3.1 3
2 0 7 4.1 4.6
-2 1 -7 2.2 3.8
2 1 7 -1.2 2.9
2 -1 -7 2.3 4.1
-2 1 7 2.2 2.5
2 1 -7 4.5 3.7
-2 -1 -7 5.7 5.1
2 -1 7 4.2 4.2
-2 1 7 0.5 2.9
-2 2 -7 1505.95 72.59
2 -2 -7 1475.75 73.79
2 2 7 1513.55 74.29
2 2 -7 1465.45 71.29
-2 2 7 1453.35 72.99
-2 2 7 1546.95 68.09
-2 -2 -7 1494.75 74.89
2 -2 7 1525.15 70.49
2 -3 -7 1.7 4
2 3 7 1.9 3.6
-2 3 -7 0.3 2.6
-2 3 7 -1.3 2.7
-2 3 7 4.8 4.2
2 -3 7 0.8 2.5
2 3 -7 8.9 5.1
2 -3 7 3 2.8
-2 -3 -7 9.3 6.1
-2 4 -7 363.26 25.3
2 4 7 349.17 27.6
2 -4 7 337.87 20.7
2 4 -7 351.56 24.3
2 -4 7 337.87 21.7
2 4 -7 358.56 18
-2 4 7 381.16 26.7
-2 4 7 417.66 29
-2 5 -7 126.69 16.1
2 5 7 131.49 20.8
2 -5 -7 99.69 16
-2 5 7 106.99 16.8
2 5 -7 89.29 13
2 -5 7 107.49 13.4
-2 -5 -7 115.69 17.8
2 5 -7 111.79 9.6
-2 5 7 93.19 14.7
2 6 7 268.67 24.3
2 -6 -7 218.28 20.7
-2 6 -7 248.48 19.8
-2 6 -7 253.97 19.4
2 6 -7 271.97 19.5
-2 6 7 261.67 24.4
-2 -6 -7 250.97 22.2
2 6 -7 239.68 17.4
-2 6 7 301.27 25.3
-2 7 -7 154.48 14.8
-2 7 -7 156.78 18.6
2 -7 -7 164.98 16.4
2 7 7 147.69 21.9
2 7 7 161.38 23.5
-2 -7 -7 158.88 19.1
-2 7 7 164.58 21.9
2 7 -7 150.88 13.9
2 -7 7 144.99 18.9
-2 7 7 202.48 26.5
2 7 -7 160.48 14.8
-2 8 -7 32 8.8
-2 8 -7 37.1 8.9
2 8 7 19.7 9.8
2 -8 -7 38.6 9
2 -8 -7 40.7 9.2
-2 -8 -7 42.2 8.8
-2 8 7 10.2 7.3
2 8 -7 48.4 8.8
2 8 -7 39 9.2
2 9 7 5 6.9
-2 9 -7 9.8 4.9
-2 9 -7 14.3 8.2
2 9 7 -0.3 5.4
-2 9 7 2.6 5.7
-2 9 7 -2.1 5
2 9 -7 4.1 3.8
2 9 -7 3 4.7
-2 10 -7 199.38 25.8
2 10 7 218.58 30.6
2 10 7 182.98 29.8
-2 10 -7 179.48 15.9
-2 10 7 145.59 27.1
-2 10 7 163.28 25.3
2 10 -7 219.18 26.2
2 11 7 86.19 23.1
-2 11 -7 99.59 13.1
-2 11 -7 71.29 16.4
2 11 -7 92.39 11.8
-2 11 7 101.09 25.1
2 11 -7 60.69 15
2 12 7 48.9 23.5
2 12 7 45.4 15.6
-2 12 -7 81.49 19.7
-2 12 7 10.7 14.2
2 12 -7 63.09 16.2
-2 13 -7 -0.8 9.5
2 13 7 4.3 12.3
2 13 7 10.8 16.8
-2 13 7 4.7 14.8
2 13 -7 -3.3 8.4
3 0 -7 2 2.1
-3 0 -7 -0.3 4.2
3 0 -7 -2.4 2.1
3 0 7 0 3.2
3 -1 -7 776.62 44.3
3 1 7 766.12 44.5
-3 1 -7 712.73 43.7
3 -1 -7 724.93 36.7
3 1 -7 702.23 32.6
3 1 -7 750.72 42.9
3 -1 7 738.23 42.8
-3 1 7 800.52 37.3
-3 -1 -7 735.23 45
3 2 7 889.81 50.49
3 -2 -7 875.81 50.09
3 -2 -7 893.21 44.6
-3 2 -7 847.02 48.9
3 2 -7 904.61 48.5
-3 2 7 890.31 44.4
3 -2 7 928.61 48
-3 -2 -7 787.42 49.7
3 -3 -7 260.97 21.9
-3 3 -7 296.77 23.6
3 3 7 290.47 24.8
3 -3 7 269.27 19.2
-3 3 7 309.77 22.3
3 -3 7 323.97 21.8
3 -4 -7 170.28 20.1
3 -4 -7 151.68 19.1
3 4 7 159.28 21.8
-3 4 -7 169.38 17
3 4 -7 192.78 11.7
-3 4 7 193.98 21.9
3 -4 7 156.28 14.5
-3 4 7 181.58 22.8
-3 -4 -7 187.88 23.6
-3 5 -7 64.89 12.4
3 -5 -7 78.09 14.5
3 5 7 49.4 11.1
-3 5 7 67.69 13.8
-3 -5 -7 52.39 12.4
3 5 -7 68.09 8.7
-3 5 7 95.09 17.4
3 -5 7 44 9.3
3 6 7 560.34 39.2
-3 6 -7 603.04 35.6
3 -6 -7 620.44 38.1
-3 6 7 566.84 39.3
-3 6 7 548.45 38.6
3 6 -7 515.25 30
3 -6 7 503.15 33.5
-3 -6 -7 555.54 36.8
3 -7 -7 296.67 23.9
3 -7 -7 303.47 24.7
-3 7 -7 273.67 22.3
3 7 7 295.17 27.3
-3 -7 -7 287.77 23.7
3 -7 7 284.67 24
3 7 -7 306.37 21.5
-3 7 7 280.27 26.6
-3 7 7 317.37 29.2
-3 8 -7 2.9 4.5
3 -8 -7 1.9 4
3 8 7 3.3 6.1
-3 8 -7 3.6 4
3 -8 -7 0.6 4.1
-3 -8 -7 3 4.1
3 8 -7 3.7 4.5
-3 8 7 4.7 6
3 -8 7 21.3 7.7
3 9 7 8.2 7.7
-3 9 -7 2.7 5.1
-3 9 -7 0.6 3.2
3 9 7 -1.7 4.9
-3 9 7 6.8 7.3
-3 9 7 4.2 8
-3 -9 -7 -2.4 1.8
3 9 -7 -0.9 3.6
3 10 7 18.5 11.1
3 10 7 9.2 9.5
-3 10 -7 23.9 7.6
-3 10 -7 26.9 10.5
-3 10 7 16.8 11.9
3 10 -7 13.6 7.7
3 10 -7 28.4 7.3
3 11 7 40.6 17.4
-3 11 -7 32 12
3 11 7 5.3 8.7
-3 11 -7 23.5 7.4
3 11 -7 16.4 6.7
3 11 -7 26.2 10.1
-3 11 7 12.8 12.4
3 12 7 4.4 9.5
-3 12 -7 2.4 4.2
-3 12 -7 -0.5 7.7
-3 12 7 -1.4 16.5
3 12 -7 7.3 8.6
3 12 -7 -1.6 4.5
3 13 7 1.1 11.8
-3 13 -7 3 11.2
3 13 -7 -2.9 8.8
4 0 -7 -0.4 2.1
4 0 7 3 3.7
4 0 -7 -0.6 2.8
-4 0 -7 -0.3 3.4
-4 1 -7 267.97 23.7
4 -1 -7 269.87 23.5
4 -1 -7 278.47 18.6
4 1 7 267.67 23.5
4 -1 7 252.47 22
-4 1 7 232.28 17.2
4 1 -7 250.47 15.5
-4 -1 -7 240.18 23.3
4 -2 -7 540.65 31.7
4 -2 -7 482.55 36.3
-4 2 -7 550.74 36.5
4 -2 7 559.24 34.8
-4 -2 -7 507.95 37.9
4 2 -7 522.65 25.8
-4 2 7 573.54 31.7
4 -3 -7 308.27 23.9
-4 3 -7 330.67 26.6
4 -3 -7 334.87 27.6
-4 -3 -7 325.17 27.8
-4 3 7 365.66 25
4 -3 7 310.97 22.6
4 -3 7 335.87 24.5
-4 4 -7 234.08 21.4
4 -4 -7 241.78 21.5
4 -4 -7 222.68 22
4 4 7 230.78 22.9
4 -4 7 243.18 18.6
-4 -4 -7 236.28 28.2
4 -4 7 209.08 18.9
-4 4 7 242.18 21.3
4 -5 -7 170.48 22.8
4 5 7 116.79 18.1
-4 5 -7 152.08 20.8
4 -5 -7 133.19 19.4
4 -5 7 121.89 11.2
-4 5 7 157.48 21.1
-4 -5 -7 158.68 21.1
4 -6 -7 36 9.9
4 -6 -7 34.1 9.3
-4 6 -7 39.4 10.5
4 -6 -7 56.79 14
4 6 7 51.49 13.7
4 -6 7 40.9 10.2
-4 6 7 37.9 10.9
-4 -6 -7 52.79 12.5
4 6 -7 30.8 7.3
4 7 7 16.5 8.6
4 -7 -7 32.4 9.6
-4 7 -7 38.1 9.7
4 -7 -7 16.7 7.9
4 7 -7 24.6 7
-4 -7 -7 24.6 8.1
4 -7 7 25.2 8.8
-4 7 7 30.2 10.9
4 -8 -7 3.2 4.6
4 -8 -7 3.4 3.5
4 8 7 -0.5 4.4
-4 8 -7 2 3.8
-4 -8 -7 2.8 4.3
4 -8 7 1.1 5
-4 8 7 3.9 7.8
-4 9 -7 122.09 17.9
4 -9 -7 110.99 16.7
4 -9 -7 124.59 12.5
4 9 7 100.59 19.6
4 9 -7 147.79 19.6
4 -9 7 126.69 21.1
-4 -9 -7 150.78 14
-4 9 7 91.79 20.2
-4 10 -7 30.1 9
4 10 7 39.1 14
4 10 7 27 16.4
-4 10 -7 25.6 10.2
4 -10 7 12.7 8.3
4 10 -7 4.6 6.4
4 10 -7 13.3 7.4
-4 10 7 15.1 11.3
4 11 7 45.6 15.7
4 11 7 41.8 17.9
-4 11 -7 34.4 13.3
-4 11 -7 50.99 12.4
4 11 -7 47.8 13.8
-4 11 7 78.39 21.5
4 11 -7 57.69 12.8
4 12 7 14.7 14
4 12 7 26 17.2
-4 12 -7 20.3 7.9
-4 12 -7 17.4 12.2
4 12 -7 11.5 7.5
4 12 -7 14.3 7.4
-4 12 7 -3.4 10.1
4 12 -7 30.8 14.2
4 13 7 -1.5 14.8
-4 13 -7 3.3 11.6
4 13 7 2.8 12
4 13 -7 -1.4 9.5
-4 13 7 5.6 15.4
5 0 -7 0.4 2.8
5 0 7 1.9 3.3
5 -1 -7 176.18 24.4
5 1 7 157.18 22.8
5 -1 -7 166.88 14.7
-5 1 -7 125.19 20
5 1 -7 131.09 11.7
5 -1 7 130.59 18.4
-5 -1 -7 168.48 24
5 -2 -7 12.4 6.6
5 -2 -7 23.9 7.9
5 2 7 23.6 8.9
-5 2 -7 28.9 8.4
5 2 -7 31.5 5.7
-5 -2 -7 28.1 9.5
5 -2 7 30.6 9.3
-5 2 7 21 6.1
5 -3 -7 34.7 10.2
-5 3 -7 38.9 11
5 -3 -7 67.59 12.4
5 3 7 45.4 12.4
5 -3 7 24.7 7.4
-5 3 7 42 9.4
-5 -3 -7 34.7 10.2
5 -3 7 41.1 9
5 4 7 3.6 5.2
-5 4 -7 10.4 6.4
5 -4 -7 4.9 5
5 -4 -7 4 5
5 -4 7 6 4.8
-5 4 7 4.4 4.5
-5 -4 -7 7.9 6.8
5 -4 7 12.7 5.4
5 -5 -7 71.59 15.4
5 -5 -7 62.09 13.8
5 -5 -7 51.09 12
-5 5 -7 48.2 12.1
5 5 7 49.5 12
-5 -5 -7 44.3 11.9
5 -5 7 60.89 10.2
-5 5 7 64.49 14
5 -5 7 66.99 13.1
5 -6 -7 226.18 28.3
5 -6 -7 290.87 26.2
-5 6 -7 235.08 23
5 -6 -7 228.78 27.9
5 6 7 244.98 36.3
-5 6 7 292.97 26.7
-5 -6 -7 233.98 23.7
5 -6 7 259.87 23.4
-5 7 -7 852.51 51.49
5 -7 -7 853.81 51.29
5 7 7 781.82 54.99
5 -7 -7 948.21 58.49
5 -7 -7 926.71 53.49
5 -7 7 876.91 52.29
-5 -7 -7 881.01 52.29
5 -8 -7 101.59 16.9
-5 8 -7 65.49 14.2
5 8 7 43.5 13.3
5 -8 -7 53.69 12
5 8 -7 89.59 15
-5 -8 -7 53.19 12
5 -8 7 56.39 13.9
5 -9 -7 15.3 6.4
5 -9 -7 18.4 6.9
5 9 7 23.3 10.2
-5 9 -7 7 6.1
5 9 -7 5.2 6.2
-5 -9 -7 5.1 4.4
5 9 -7 9.4 6.9
-5 9 7 17.9 10.6
5 -9 7 17.8 9.3
5 10 7 31.1 13.8
-5 10 -7 69.19 14.5
5 10 -7 35.9 11.7
5 10 -7 62.59 14
-5 10 7 68.79 19.6
-5 11 -7 51.69 12.8
5 11 7 46.2 19.6
5 11 7 57.19 19
-5 11 7 47.3 17.8
5 11 -7 51.59 12.9
5 11 -7 88.49 22.3
5 12 7 117.29 26.5
5 12 7 94.99 27.4
-5 12 -7 123.99 19.4
5 12 -7 152.58 26
-5 12 7 128.19 31.2
5 12 -7 103.89 18.5
5 13 7 7.1 19.3
-6 0 -7 -0.4 3.6
6 0 7 -0.3 3.4
6 0 -7 -1.1 2.6
6 -1 -7 158.08 23.6
6 1 7 187.58 26.6
-6 1 -7 124.39 19.4
6 -1 -7 169.68 19.5
6 -1 7 115.99 18.2
-6 -1 -7 150.18 23.3
6 1 -7 166.68 14
6 -2 -7 136.49 18
6 2 7 85.29 15.9
6 -2 -7 84.59 15.6
-6 2 -7 105.69 22.6
-6 -2 -7 97.99 17
6 -2 7 171.98 24.3
-6 3 -7 84.59 15.5
6 3 7 98.49 19.8
6 -3 -7 107.39 19
6 -3 -7 78.69 13.7
6 -3 -7 68.89 13.6
6 -3 7 79.49 14
-6 3 7 110.79 15.9
6 -3 7 69.49 13.8
-6 -3 -7 63.59 15.3
-6 4 -7 46.4 11.2
6 -4 -7 45.6 12.9
6 -4 -7 53.09 12.3
6 4 7 42 11.5
6 -4 -7 44.6 11
6 -4 7 57.89 11.9
6 -4 7 55.79 11.7
-6 4 7 33.4 9.9
-6 -4 -7 70.19 15
-6 5 -7 149.29 21.9
6 -5 -7 146.19 23.5
6 -5 -7 112.59 18.6
6 5 7 119.89 21
6 -5 -7 188.28 25.7
6 -5 7 144.29 19.9
-6 -5 -7 163.28 24.7
6 -5 7 135.39 17.3
-6 5 7 159.18 22.1
6 -6 -7 62.19 15.5
6 6 7 59.39 15.9
-6 6 -7 66.79 14.3
6 -6 -7 59.49 14.7
6 -6 -7 96.59 18.3
-6 6 7 60.69 14.4
6 -6 7 91.19 16.6
6 -6 7 81.79 11.3
6 -7 -7 55.39 13.4
6 -7 -7 58.29 14.6
-6 7 -7 59.79 13.9
6 7 7 41.9 14.5
6 -7 -7 64.09 15.5
6 7 -7 34.6 12.2
-6 -7 -7 62.39 14.7
6 -7 7 60.99 13.7
6 8 7 2 6.3
6 -8 -7 -1 2.7
6 -8 -7 1.5 4.4
-6 8 -7 0.6 4.3
6 -8 -7 8.3 8.6
-6 8 7 8.4 8.6
6 -8 7 2.8 5.9
6 8 -7 2.7 6.2
-6 -8 -7 10.5 6.7
6 9 7 200.08 34
6 -9 -7 196.28 19.1
-6 9 -7 183.08 26.5
6 -9 -7 177.08 18
-6 -9 -7 212.28 18.8
6 9 -7 192.88 24.3
6 -9 7 226.88 31
-6 9 7 205.98 31.8
6 9 -7 240.98 34
-6 10 -7 138.99 22.6
6 10 7 118.19 23.6
6 -10 7 140.89 24.9
6 10 -7 130.69 21.4
-6 10 7 89.89 21.9
6 10 -7 142.89 22.9
-6 11 -7 3.9 6.5
6 11 -7 4 8.2
-6 11 7 -2.8 18.4
6 11 -7 7.7 8.8
6 -11 7 11.4 9.9
6 12 7 15 15.3
-6 12 -7 33 12
6 12 7 14.6 16.9
6 12 -7 5.4 9.6
6 12 -7 15.3 11.8
-6 12 7 10.7 16.3
-7 0 -7 3.5 5.9
7 0 -7 -3.3 2.5
7 0 -7 1.4 3.5
7 0 7 2.1 4.9
7 1 7 20 9.7
-7 1 -7 13.8 8.4
7 -1 -7 40.8 9.4
7 -1 -7 25.5 9
-7 -1 -7 43.2 13.3
7 -1 7 34.9 11.7
7 1 -7 19.9 6.8
7 -2 -7 162.38 19.9
7 -2 -7 211.58 28.5
-7 2 -7 144.59 23.8
7 2 7 182.58 27.7
7 -2 -7 146.79 24.2
-7 -2 -7 142.29 21.9
7 -2 7 164.98 22.4
7 -3 -7 681.33 48.2
7 -3 -7 653.73 45.1
-7 3 -7 662.63 46.7
7 -3 -7 682.63 42.4
7 3 7 650.53 47.2
-7 -3 -7 662.23 47.4
7 -3 7 596.74 40.8
7 -3 7 579.54 41.9
-7 4 -7 19.6 9
7 -4 -7 24 9.9
7 -4 -7 32.8 10.3
7 -4 -7 34 12
7 -4 7 17 8.1
-7 4 7 2.7 4.1
-7 -4 -7 1.5 4.8
7 -4 7 19.3 7.4
7 5 7 9.7 15.4
7 -5 -7 16.1 8.8
7 -5 -7 41.8 12.3
-7 5 -7 27.6 11
7 -5 -7 32.4 10.5
-7 -5 -7 27.1 10.7
-7 5 7 22.8 9.6
7 -5 7 18.1 7.7
7 5 -7 23.4 10
7 -5 7 57.59 13.5
7 -6 -7 39.6 12.6
7 6 7 70.69 18.4
-7 6 -7 70.49 24.9
7 -6 -7 59.19 14.6
7 -6 -7 83.69 17.2
7 -6 7 69.79 12.2
7 -6 7 76.29 16.1
7 6 -7 81.59 19.3
-7 -6 -7 56.99 13.9
7 -7 -7 216.08 27
-7 7 -7 193.28 32.5
7 -7 -7 203.78 28.8
7 7 7 187.38 28.3
7 -7 7 196.28 26.6
7 7 -7 239.48 32.1
-7 -7 -7 217.18 28.3
7 8 7 8.8 12.6
7 -8 -7 -0.3 4.5
7 -8 -7 1.4 7.1
7 -8 -7 2.7 5.1
-7 8 -7 2 5.7
-7 8 7 -2.1 5.2
7 8 -7 23.5 11.4
7 -8 7 17.3 9.2
-7 -8 -7 1 4.9
7 -9 -7 20.3 8.1
7 -9 -7 12.6 9.8
-7 9 -7 14.5 9.2
7 -9 -7 1.5 4.6
7 9 7 21.4 13.4
-7 9 7 19.2 21
-7 -9 -7 10.2 6.8
7 9 -7 5.2 7.9
7 -9 7 12.5 8.8
-7 10 -7 12.1 9.1
7 10 7 -1.1 7.8
-7 10 7 18.5 14.1
7 -10 7 3.6 8.1
7 10 -7 2.3 7
7 11 7 46.4 19.7
-7 11 -7 62.49 16.4
7 11 -7 34 14.9
7 11 -7 6.1 9.2
7 -11 7 55.19 17.2
-7 11 7 52.09 20.3
7 12 7 -1.1 15.6
-7 12 -7 0 6.6
7 12 7 -1.9 13.9
7 -12 7 11.3 11.1
-7 12 7 2.5 15.2
7 12 -7 -2.8 9.1
-8 0 -7 3.7 7.1
8 0 -7 -2.5 2.8
8 0 7 -3.8 2.5
8 0 -7 0.4 4.3
8 -1 -7 9.8 9
8 -1 -7 3.8 5.2
8 1 7 3.3 6.2
-8 1 -7 13.9 8.3
-8 -1 -7 6 6.2
8 1 -7 5.5 5.3
8 -1 7 4.3 5.6
-8 2 -7 328.87 31.9
8 -2 -7 310.67 26.3
8 -2 -7 334.17 38.7
8 2 -7 308.67 23.5
-8 -2 -7 261.87 34
8 -2 7 314.67 29.8
8 -3 -7 5.2 6.3
8 -3 -7 3.1 6.5
-8 3 -7 -2.8 3.7
8 -3 -7 2.1 5.2
8 3 7 -1.3 3.7
8 -3 7 5.3 5.7
8 3 -7 -0.2 5.6
8 -3 7 5.6 6.4
-8 -3 -7 -1.3 3.6
8 -4 -7 37.7 12.1
8 -4 -7 53.19 14.6
8 -4 -7 44.8 12.3
-8 4 -7 38.7 13.2
8 -4 7 56.29 14.6
8 -4 7 58.39 14.4
-8 -4 -7 25.6 10.7
8 4 -7 19.3 11.6
8 -5 -7 5.5 6.4
8 -5 -7 -2.1 4.2
8 -5 -7 4.7 6.1
-8 5 -7 0 4.3
8 -5 7 2.7 5.8
8 5 -7 9.7 8.2
8 -5 7 -0.2 4.1
-8 -5 -7 -3.1 4.3
8 -6 -7 218.88 31.1
8 -6 -7 136.09 23.3
8 6 7 170.98 29.9
-8 6 -7 179.78 29
8 -6 -7 153.38 27.1
8 -6 7 156.58 20.3
8 -6 7 165.88 24.4
8 6 -7 157.98 27.3
-8 -6 -7 115.99 21.5
8 7 7 49 16.6
-8 7 -7 134.89 25.6
8 -7 -7 91.49 20.1
8 -7 -7 76.19 16.5
8 -7 -7 71.89 17
8 7 -7 81.59 20.8
-8 -7 -7 46.4 13.3
-8 7 7 53.69 15.6
8 -7 7 91.59 19.6
8 -7 7 71.29 10.8
8 8 7 2.1 8.1
8 -8 -7 9.6 8.2
-8 8 -7 2.5 6.5
8 -8 -7 0.8 4.8
-8 8 7 -1.5 7
-8 -8 -7 3.4 5.9
8 8 -7 1.7 7.5
8 -8 7 -0.1 6.3
8 -9 -7 9.8 7.2
8 -9 -7 0.5 5.3
-8 9 -7 -0.8 4.9
8 9 7 8.1 10.3
8 -9 -7 4.5 8.2
8 9 -7 4.9 8.4
-8 9 7 2 8.6
8 -9 7 0 5.9
-8 -9 -7 2.6 5.5
8 -10 -7 82.79 22.4
8 10 7 104.39 26.6
-8 10 -7 109.19 22
8 -10 -7 83.19 13.2
8 10 -7 92.99 19.6
8 -10 7 89.59 21.1
-8 10 7 98.99 29.1
8 10 -7 95.09 22.6
-8 11 -7 14.6 9.4
8 11 7 8.6 18.5
-8 11 7 20.7 17.6
8 11 -7 0.7 19.1
8 -11 7 10.2 11
8 11 -7 4.6 9.9
-8 12 -7 44.5 16
8 -12 7 43.8 17.1
9 0 -7 -3.3 4.6
9 0 7 0.2 4.8
-9 0 -7 -3.9 2.4
9 0 -7 -3.5 2.8
9 -1 -7 726.03 55.19
-9 1 -7 802.92 56.89
9 -1 -7 699.83 46
9 1 7 719.53 53.99
9 1 -7 789.92 45.8
9 -1 7 783.02 54.29
-9 -1 -7 762.42 56.49
9 -2 -7 111.69 21.4
9 -2 -7 149.29 22
9 -2 7 149.29 26.3
9 2 -7 111.49 17.1
-9 -2 -7 118.19 25.2
9 -3 -7 96.19 18.1
9 -3 -7 67.29 15.8
9 -3 -7 93.59 19.2
-9 3 -7 110.29 23.9
-9 -3 -7 80.49 20.6
9 -3 7 126.09 21.6
9 -3 7 112.09 22.4
-9 4 -7 140.19 25.1
9 -4 -7 173.08 25.7
9 -4 -7 132.69 24.6
9 -4 -7 125.79 21.6
9 -4 7 133.29 22
9 -4 7 107.09 19.1
9 4 -7 190.58 30.8
-9 -4 -7 213.98 33.5
9 -5 -7 124.29 26.3
-9 5 -7 117.99 22.1
9 -5 -7 157.58 26.7
9 -5 -7 129.49 23
9 -5 7 78.69 17.8
-9 -5 -7 84.29 19.2
9 5 -7 105.29 21.2
9 -5 7 100.89 18.9
9 -6 -7 175.48 28.4
9 6 7 233.78 38.2
-9 6 -7 191.88 31.8
9 -6 -7 238.08 31.6
9 -6 -7 214.18 28.7
9 -6 7 223.68 26.3
-9 -6 -7 201.78 32
9 6 -7 211.38 33.4
9 -6 7 223.48 36.2
9 -7 -7 26.2 10.2
9 -7 -7 22.4 11.2
-9 7 -7 25 13.1
9 -7 -7 18.1 10.6
9 7 7 20.2 12.8
9 7 -7 27.6 13.1
9 -7 7 26.6 7.9
9 -7 7 20.7 11.2
-9 -7 -7 35.2 12.2
9 -8 -7 132.99 27.3
9 -8 -7 111.59 21.3
9 8 7 145.49 29.5
9 -8 -7 128.59 22.7
-9 8 -7 93.99 22.8
-9 -8 -7 119.59 22.5
-9 8 7 87.69 21
9 8 -7 88.89 22.1
9 -8 7 117.69 23.3
-9 9 -7 2.9 6.1
9 -9 -7 -1 5.1
9 -9 -7 -0.4 7.1
9 -9 -7 8.7 7.4
9 9 7 10.2 13
-9 9 7 7.8 11.9
9 -9 7 -3.4 6.1
-9 -9 -7 0.6 5.2
9 9 -7 21.7 13.3
-9 10 -7 -2.1 6
9 -10 -7 0.1 4.5
9 -10 -7 -0.5 4.4
9 -10 7 -1.7 6.7
-9 10 7 2.9 12.9
9 10 -7 8.7 12.1
-9 11 -7 16.6 11.5
9 11 -7 12.6 16.5
-9 11 7 14.9 19.8
9 11 -7 -0.8 11.1
-9 12 -7 9.2 13.6
9 -12 7 -4.1 9.1
-10 0 -7 2.2 5.7
10 0 -7 -0.5 5
10 0 7 7.9 8.1
10 0 -7 2 5.1
-10 1 -7 130.59 24.6
10 -1 -7 127.29 19.8
-10 -1 -7 133.29 23.9
10 -1 7 134.29 25.6
10 1 -7 166.58 21.9
-10 2 -7 276.17 39.4
10 -2 -7 208.78 27.1
10 -2 7 200.38 29.9
-10 -2 -7 263.47 38
10 2 -7 261.97 23.8
10 -3 -7 15.7 9.3
-10 3 -7 11.4 10
10 3 7 -3.3 4.7
10 -3 -7 3.9 6.5
10 -3 -7 4.4 7.9
10 3 -7 -0.8 5.2
-10 -3 -7 21.6 12.8
10 -3 7 3.4 6.2
10 -3 7 9.8 8.2
10 -4 -7 83.49 17.3
10 -4 -7 90.99 18.8
-10 4 -7 57.09 16.9
10 -4 -7 59.99 17.6
-10 -4 -7 146.99 29.2
10 -4 7 94.79 19.3
10 -4 7 85.69 19.2
10 -5 -7 4.6 9.8
10 -5 -7 0.9 6.4
-10 5 -7 5.8 8
10 -5 -7 12.4 8.8
10 5 7 5.7 8.3
10 5 -7 0.2 6.8
-10 -5 -7 12.1 10.5
10 -5 7 18.1 10.9
10 -5 7 12.4 8.2
10 -6 -7 20.2 10.9
10 -6 -7 18.4 11
-10 6 -7 11.7 9.3
10 6 7 5.7 10.8
10 -6 7 28 12.3
-10 -6 -7 34.8 15.5
10 6 -7 19 12.8
10 -6 7 33.8 13.3
10 -7 -7 1.7 7.3
10 -7 -7 -0.6 8.4
-10 7 -7 2.8 8.2
10 -7 -7 2 6
10 -7 7 -2.2 5.7
-10 -7 -7 -1.5 5.5
10 7 -7 -1.8 7.4
10 -7 7 0.8 4.5
10 -8 -7 -1 7.2
-10 8 -7 15.2 10.8
10 -8 -7 10.5 9.5
10 8 7 17.5 15.2
10 -8 -7 5.2 8.5
10 -8 7 10.1 5
10 -8 7 8.6 9.5
-10 -8 -7 7.8 8.4
10 -9 -7 21 10.3
10 -9 -7 46.8 18.4
-10 9 -7 36 15
10 -9 7 39.5 15.5
10 9 -7 44.1 19.4
10 -10 -7 13.4 13.4
-10 10 -7 -3.5 6.7
10 -10 -7 -2.6 4.9
10 -10 7 -4.2 7.5
10 -11 -7 20.6 15.9
-10 11 -7 10.6 10.4
10 -11 7 25.3 15
11 0 -7 0.6 5.1
11 0 -7 -4.2 5.8
11 0 7 -3.3 4.9
-11 0 -7 3.1 6
11 -1 -7 9.5 7.9
-11 1 -7 2.2 6.5
11 1 7 -0.3 5.1
11 -1 -7 2.3 8
-11 -1 -7 1.6 7.2
11 1 -7 20.2 9.2
-11 2 -7 75.89 18.7
11 -2 -7 60.09 14.5
11 2 -7 65.69 21.2
11 -2 7 63.79 18
11 2 -7 86.09 16.8
-11 -2 -7 97.19 25.1
11 -3 -7 129.09 26.6
11 3 7 96.29 21.9
-11 3 -7 90.99 24.6
11 -3 -7 80.59 22
11 -3 7 76.29 18.4
11 3 -7 63.39 18.4
-11 -3 -7 58.99 21.4
11 -4 -7 3.8 7.7
-11 4 -7 1.6 5.9
11 -4 -7 -4.4 3.9
11 4 7 -2.8 6.7
11 4 -7 3.2 9.4
-11 -4 -7 -0.5 6.1
11 -4 7 -1.6 4.3
11 -4 7 1.9 6.4
11 5 7 23.8 14.5
-11 5 -7 4.8 9.1
11 -5 -7 7.2 7.8
11 -5 -7 4.4 7.9
11 -5 7 17.1 11.8
11 5 -7 15.9 12.5
-11 -5 -7 20.5 12.3
11 -5 7 6.9 8.4
-11 6 -7 68.09 19.5
11 -6 -7 121.89 24.6
11 6 7 86.89 26.9
11 -6 -7 78.89 19.4
11 -6 -7 69.19 20.8
11 -6 7 94.29 21.7
11 -6 7 63.99 16
-11 -6 -7 56.39 17.2
11 6 -7 86.59 37.3
11 -7 -7 0.6 6
11 -7 -7 9.7 11.3
11 7 7 -2.9 10.7
-11 7 -7 2.7 6.7
11 -7 -7 6.2 9
11 -7 7 3.9 8.4
11 -7 7 0.8 4.7
11 7 -7 13.3 14.3
-11 -7 -7 5.5 7.3
11 -8 -7 -0.3 6.2
11 8 7 -1.9 13.2
-11 8 -7 1.5 7.1
11 -8 -7 1.4 8.7
11 -8 -7 -5 6.3
11 8 -7 4.7 14.6
11 -8 7 0.1 3.9
-11 -8 -7 -0.9 6
11 -8 7 9.8 10.6
11 -9 -7 15.1 12.6
11 -9 -7 2.2 7.2
-11 9 -7 0.2 8.3
11 -9 7 3.8 16.1
11 9 -7 4.8 16.9
11 -10 -7 -4.4 8.2
11 -10 -7 0.2 7.1
-11 10 -7 -3.6 6.8
11 -10 7 -7.4 7.1
12 0 -7 -4.6 3.9
-12 0 -7 -0.1 5.6
12 0 7 -0.2 14.3
12 0 -7 15 12.1
12 1 7 62.89 21.2
-12 1 -7 57.49 18.8
12 -1 -7 36.8 15.5
12 -1 -7 55.39 14.8
12 1 -7 58.29 18.8
12 -1 7 33.1 13.7
12 1 -7 26.1 10.9
-12 -1 -7 87.69 25.5
12 2 7 3 7.8
12 -2 -7 -1.5 5.3
12 -2 -7 3.6 10
-12 2 -7 -1.7 5.7
12 -2 7 -3.6 6.4
-12 -2 -7 9 9.7
12 2 -7 2.9 6.3
12 -2 7 1 6.6
12 2 -7 -1.2 7.1
-12 3 -7 -4.8 5.3
12 -3 -7 3.2 7.3
12 3 7 14.3 12
12 -3 -7 -3.9 8
-12 -3 -7 0.4 6.8
12 3 -7 1.4 9
12 -3 7 -1.3 5.8
12 3 -7 2.1 6.3
12 -4 -7 -0.1 6.5
12 -4 -7 24.7 14.1
12 -4 -7 15.5 13.8
12 -4 7 1.8 7.5
12 -4 7 13.2 8.6
12 4 -7 1.5 9.8
-12 -4 -7 4 8.6
12 -5 -7 8.2 8.4
12 5 7 6.6 12.3
12 -5 -7 3 7.6
12 -5 -7 -1.7 8.7
-12 -5 -7 1.9 8.8
12 5 -7 2.4 12.1
12 -5 7 13.7 11.5
12 -5 7 24.3 13.6
12 -6 -7 8.9 8.6
12 6 7 31.3 17.8
12 -6 -7 23.8 13.1
12 -6 -7 5.1 10.1
12 -6 7 18.4 10.8
-12 -6 -7 45.3 16.9
12 6 -7 41.9 22.9
12 -6 7 10 10.7
12 -7 -7 6.3 8
-12 7 -7 2.5 10.3
12 -7 -7 0.8 8
12 -7 7 4.9 9
-12 -7 -7 10.8 10.2
12 7 -7 11 17.8
12 -8 -7 6.4 8.4
-12 8 -7 -6.2 6.2
12 -8 -7 11.4 11.2
-12 -8 -7 18.2 12.2
12 -8 7 11.6 11.9
12 -9 -7 113.79 28.7
12 -9 -7 96.59 20.6
-12 9 -7 80.89 22.9
12 -9 7 104.69 27.2
-13 0 -7 -3.2 5.4
13 0 7 -2.5 8.2
13 0 -7 2.8 7.4
13 0 -7 -0.9 10.2
13 -1 -7 33.5 16.7
-13 1 -7 56.89 17.5
13 1 7 29.4 15.2
13 -1 -7 63.09 17.5
13 1 -7 37.2 13.2
13 -1 7 15.7 12.5
-13 -1 -7 97.09 27.7
13 1 -7 35.6 22.7
13 -2 -7 -3.2 9.9
-13 2 -7 3 8.4
13 -2 -7 1.2 6.6
13 2 -7 -0.7 10.6
13 -2 7 -4.3 5.1
-13 -2 -7 -0.4 5.7
13 2 -7 2.3 7.3
-13 3 -7 8.4 11.3
13 3 7 2.9 11.1
13 -3 -7 3.9 11.7
13 -3 -7 8.7 8.9
-13 -3 -7 1.1 7
13 -3 7 -1.8 8
13 3 -7 17.9 10.6
13 3 -7 6.5 12.1
13 -3 7 -2.9 5.3
13 4 7 -0.6 10.7
13 -4 -7 2.9 8.3
13 -4 -7 -1.3 10.1
-13 4 -7 -2.7 6.2
13 -4 -7 5 7.6
-13 -4 -7 0.6 8.1
13 -4 7 -1.4 6.5
13 4 -7 -0.5 11.9
13 -5 -7 -2.2 5
-13 5 -7 8.4 11.7
13 -5 -7 8.9 13.1
13 -5 -7 1.6 8.4
13 5 7 -0.1 12.2
13 -5 7 7.4 10.6
-13 -5 -7 5 9.4
13 -5 7 1.3 7.8
13 5 -7 -1.9 14.2
13 -6 -7 8.6 14.7
13 -6 -7 -1.2 6.2
-13 6 -7 -2.9 5.9
13 -6 -7 -6.2 4.4
-13 -6 -7 14.7 11.9
-13 7 -7 153.28 34
13 -7 -7 151.68 28.6
13 -7 -7 140.69 29.2
-13 -7 -7 157.38 31.3
13 -7 7 154.68 29.8
13 -8 -7 -1.7 6.3
13 -8 -7 -4.2 7.5
-13 8 -7 2 9.8
13 -8 7 14.9 14.5
14 0 -7 -4 11.7
14 0 -7 3 7.5
-14 0 -7 -3.7 6.7
14 0 7 5 14.7
14 -1 -7 -0.4 12.3
-14 1 -7 1.3 8.3
14 1 7 -2.2 10.6
14 -1 -7 6.3 8.2
14 1 -7 15.1 11.8
14 1 -7 -0.2 13.7
-14 -1 -7 4.5 10.3
14 -1 7 -1.6 9.9
14 -2 -7 8.7 15
14 -2 -7 -4.5 6.3
-14 2 -7 42.2 18.9
14 2 7 14.4 16.7
14 -2 7 -3.5 10.2
14 2 -7 4.6 14.7
-14 -2 -7 25.6 16.6
14 -2 7 14.7 11.5
14 2 -7 16.1 10.6
14 -3 -7 2.1 14.3
-14 3 -7 32.5 17.4
14 -3 -7 27.8 14.2
14 3 7 25.3 17.6
14 -3 7 40.1 18
14 -3 7 10.5 13.7
-14 -3 -7 20.9 14.7
14 3 -7 14.7 10.5
-14 4 -7 0.8 8.5
14 -4 -7 5.2 8.7
14 -4 -7 -4.8 13.6
14 -4 -7 2.3 8.6
14 -4 7 -0.6 11.9
-14 -4 -7 0.2 8.2
14 -4 7 4 9.4
14 4 -7 -1.1 6.1
14 -5 -7 6 15.1
-14 5 -7 -2.8 8.5
14 -5 -7 -8.9 6.1
14 -5 -7 -2.7 5.4
-14 -5 -7 -1.9 8.4
14 -5 7 -1.7 8.6
14 -6 -7 4.2 10.5
-14 6 -7 11.6 13
14 -6 -7 2.7 7
-14 -6 -7 -2.5 7.3
14 -6 7 10 11.9
14 -7 -7 0.6 9.5
-14 7 -7 -2.6 8.4
14 -7 7 -2.1 9
-14 -7 -7 -4.9 6.5
-15 0 -7 -2 8.7
15 0 7 -2.4 16.5
15 0 -7 -4.8 6.8
15 1 7 7.7 20.2
15 -1 -7 -5.6 20.5
15 -1 -7 7 10.7
-15 1 -7 -1.6 7.6
15 1 -7 -5.4 6.3
-15 -1 -7 -5.1 6.2
15 -1 7 -4.5 13.9
15 -1 7 0.6 8.8
-15 2 -7 109.59 31.1
15 -2 -7 63.99 31.3
15 -2 -7 94.99 23.3
15 -2 7 27.5 20.2
15 -2 7 95.99 24.7
15 2 -7 51.39 16.7
-15 -2 -7 88.39 26.4
-15 3 -7 26.4 17.2
15 -3 -7 33.4 31.1
15 -3 -7 50.19 18.6
15 3 -7 64.79 19.1
15 -3 7 60.19 19.9
-15 -3 -7 63.39 29.8
15 -4 -7 2.1 9.8
-15 4 -7 19.4 15.3
15 -4 -7 44.2 18.8
15 4 -7 29.5 14.8
15 -4 7 3.9 10.2
-15 -4 -7 1.8 9.2
-15 5 -7 -2.1 9.2
15 -5 -7 -1.1 6.8
15 -5 -7 -3.8 7.3
15 -5 7 1.4 9.7
-15 -5 -7 27.6 15.1
15 5 -7 12.2 12.3
16 0 -7 -2 8.2
-16 0 -7 -8.1 7.5
-16 1 -7 8.8 12.6
16 -1 -7 55.29 19.2
-16 -1 -7 47.9 20
16 1 -7 33.3 17.4
16 -1 7 49.99 19.9
-16 2 -7 13.8 14.4
16 -2 -7 6.9 11
16 2 -7 4.3 10.1
-16 -2 -7 8.9 13.9
16 -2 7 -2.6 8.7
16 -3 -7 -1.7 7.2
-16 3 -7 5.6 12.9
16 -3 -7 2.8 11.2
-16 -3 -7 5.6 11.9
16 -3 7 -3.6 8.9
16 3 -7 0.3 9.3
0 0 8 9.2 5.3
0 0 -8 -1.7 2.7
0 -1 -8 -1 3
0 -1 8 0.3 3
0 1 -8 2.4 3.2
0 1 8 -0.6 3.6
0 2 8 191.98 15.5
0 -2 -8 174.48 23.4
0 -2 8 192.68 16.7
0 3 8 4.8 5
0 3 8 -1.3 2.8
0 3 -8 -0.9 2.8
0 4 8 149.88 18.6
0 4 8 136.99 21.5
0 -4 -8 176.08 23
0 4 -8 150.18 15
0 5 8 -0.9 2.6
0 5 8 -1.1 3.9
0 5 -8 -0.6 2.4
0 -5 -8 2.1 4
0 6 -8 600.04 31.8
0 6 8 579.94 40.4
0 6 8 619.34 41.4
0 6 -8 602.64 35
0 -6 -8 610.94 39.6
0 7 -8 0.4 3
0 -7 -8 0.3 3.6
0 7 8 -0.5 4
0 7 -8 1.3 3
0 7 8 5.2 6.9
0 -8 -8 124.19 17.3
0 8 -8 191.98 16.2
0 8 -8 183.38 19.7
0 8 8 165.68 23
0 9 8 -2.8 3.8
0 9 8 0.6 7.5
0 9 -8 -1.3 3.2
0 -9 -8 3.6 3.7
0 9 -8 -0.5 2.5
0 10 8 -4.5 5.3
0 10 -8 -2.7 3.8
0 10 -8 1.2 3.8
0 10 8 -0.6 5.6
0 11 8 -2.3 8.8
0 11 -8 -2.4 4.8
0 11 -8 3.1 3.7
0 11 8 2.5 7.5
0 12 8 95.59 40.2
0 12 8 127.19 25.1
0 12 -8 96.09 19.9
0 13 -8 -4.9 8.4
0 13 8 -3.8 11.3
-1 0 -8 733.93 44.8
-1 0 8 761.92 34.4
-1 0 8 770.72 43.8
1 0 -8 803.62 45.2
1 1 8 1294.57 65.29
1 -1 -8 1208.48 64.89
-1 1 -8 1254.47 64.69
-1 1 8 1233.48 55.99
1 -1 8 1281.47 63.29
-1 -1 -8 1197.08 65.29
1 1 -8 1311.97 64.69
-1 1 8 1310.27 66.29
1 2 8 16.2 6.8
1 -2 -8 5.4 4.3
-1 2 -8 12.2 6.5
-1 2 8 10.1 4.6
-1 2 8 1.2 3.5
1 2 -8 19.1 6.4
1 -2 8 8.1 2.8
1 -2 8 4 3.7
-1 -2 -8 18.2 7.8
1 3 8 313.97 26
1 -3 -8 199.08 27.3
-1 3 8 362.26 24
-1 3 8 336.67 26.7
1 3 -8 346.77 24.9
1 -3 8 367.36 23.1
-1 -3 -8 309.17 36.9
1 4 8 29.2 9
-1 4 -8 6.2 4.6
1 -4 -8 9.2 5.6
1 4 -8 11.7 5.2
-1 -4 -8 1.4 4
-1 4 8 7.9 5.1
-1 4 8 12.7 7.1
1 -4 8 4.9 2.9
1 5 8 289.27 25.6
-1 5 -8 251.57 21
1 5 -8 295.77 16.1
1 -5 8 271.87 18.2
-1 -5 -8 241.78 23.5
-1 5 8 265.07 24.7
-1 5 8 281.97 24.1
1 5 -8 320.77 22.6
1 -6 -8 132.29 20.3
1 6 8 129.79 19.9
1 6 8 141.89 21
-1 6 -8 132.99 17.1
1 6 -8 127.89 11.2
-1 -6 -8 114.89 17.6
-1 6 8 115.29 19
1 6 -8 133.49 16.4
-1 6 8 145.59 22.5
1 -7 -8 172.98 21.7
1 7 8 168.28 25.2
-1 7 -8 155.18 18.5
-1 7 -8 131.49 16
1 7 8 137.49 22.1
1 7 -8 155.18 14.9
1 7 -8 165.08 14.5
-1 7 8 153.98 24.9
-1 7 8 200.98 26.8
-1 -7 -8 179.68 22.6
-1 8 -8 316.77 41
1 -8 -8 320.57 24.7
1 8 8 325.07 29.5
-1 8 -8 350.76 24.1
-1 -8 -8 347.27 25.3
1 8 -8 302.47 22.3
-1 8 8 374.16 31.4
1 8 -8 312.37 23.3
1 -9 -8 432.96 30.4
1 -9 -8 421.36 25.7
1 9 8 434.36 38.6
-1 9 -8 398.46 30
-1 9 -8 385.26 26.6
1 9 8 398.66 34.7
1 9 -8 418.86 26.4
-1 9 8 438.16 38.7
1 9 -8 421.16 29.6
-1 -9 -8 398.46 25.2
-1 9 8 394.66 34.5
1 10 8 98.69 22.9
-1 10 -8 109.89 14.8
-1 10 -8 123.99 18.9
1 10 8 116.89 21.7
1 10 -8 136.19 16
-1 10 8 125.99 22.3
1 10 -8 100.09 16.9
-1 10 8 74.59 19.2
1 11 8 21.3 13.2
-1 11 -8 45.5 9.1
-1 11 -8 27.7 10.5
1 11 8 39.4 15.1
-1 11 8 33.2 15.8
-1 11 8 22.9 12.3
1 11 -8 35.6 11.4
1 11 -8 50.99 9.4
1 12 8 -1.5 8.3
-1 12 -8 18.8 11.5
1 12 8 2.8 14.2
-1 12 8 -3.7 10.7
1 12 -8 1.8 7.7
-1 12 8 6.4 11
-1 13 -8 9.6 11.4
1 13 8 7.4 13.9
1 13 -8 16.2 11.7
-1 13 8 5.4 12.8
-2 0 -8 5.8 4.6
-2 0 8 4.9 2.4
2 0 8 1.6 4.1
2 0 -8 2.4 4.1
2 1 8 245.88 22.3
-2 1 -8 262.47 22.8
2 -1 -8 262.47 23.1
-2 1 8 252.77 22.2
-2 -1 -8 266.47 24.1
2 1 -8 245.98 21.8
-2 1 8 267.87 16.9
2 -1 8 245.58 21.2
2 -2 -8 121.99 17.8
2 2 8 135.59 19.9
-2 2 -8 89.49 13.6
-2 2 8 116.79 16.3
-2 -2 -8 118.49 19.5
2 -2 8 147.99 18.6
2 2 -8 122.99 16.6
-2 2 8 138.09 12.7
2 -3 -8 85.39 14.2
2 3 8 119.39 19.6
-2 3 -8 135.19 18.8
2 3 -8 93.99 14.9
-2 3 8 120.49 19
-2 3 8 111.39 14.3
-2 -3 -8 81.19 14.5
2 -3 8 119.09 10.2
2 -3 8 115.49 15.4
2 4 8 557.94 39.3
2 -4 -8 574.94 39.3
-2 4 -8 584.64 36.8
2 -4 8 608.34 31.7
2 4 -8 650.53 25.6
2 -4 8 593.44 32.3
-2 4 8 604.24 39.8
-2 -4 -8 566.94 39.7
2 4 -8 599.54 36.4
-2 4 8 549.45 36.3
-2 5 -8 -2.8 1.8
2 -5 -8 -2.1 3
2 5 8 1.7 3.5
2 5 -8 -0.5 1.6
-2 5 8 -0.1 3.5
-2 -5 -8 8.2 6.2
2 5 -8 -1.2 2.5
-2 5 8 -3.5 2.6
2 -5 8 2.8 3.1
-2 6 -8 105.69 15.3
2 -6 -8 79.29 15.2
2 6 8 95.89 16.3
2 6 -8 104.19 11.4
-2 6 8 111.29 20.1
-2 -6 -8 82.49 15.9
2 -6 8 98.89 13.6
2 6 -8 106.09 14.9
-2 6 8 127.39 20
2 7 8 21.4 12.7
-2 7 -8 52.69 10.9
2 7 8 55.29 14.4
2 -7 -8 49.6 10.8
-2 -7 -8 51.59 12.5
2 7 -8 54.49 9.4
2 7 -8 59.49 10.9
-2 7 8 42.4 12.7
2 -7 8 27.5 8.2
-2 7 8 33.2 13.5
2 -8 -8 370.06 26.6
-2 8 -8 321.97 25.6
2 -8 -8 377.26 27.2
2 8 8 330.87 44.7
-2 8 -8 361.56 25.6
2 8 8 389.76 32.8
2 8 -8 355.26 24.6
-2 8 8 366.56 31.8
-2 -8 -8 289.27 24.5
2 8 -8 324.47 23.9
-2 9 -8 7 5.9
2 9 8 6.5 9
2 9 8 13.7 9.4
2 -9 -8 2.5 3.5
2 -9 -8 3.5 4.1
-2 9 -8 6.2 4.7
-2 9 8 6.3 7.5
2 9 -8 -1.6 2.5
2 9 -8 4.5 4.8
-2 9 8 -1.5 6.1
-2 -9 -8 17.2 6
-2 10 -8 21.3 7.2
2 10 8 10 9.9
2 10 8 29.6 11.9
-2 10 -8 16.1 10
-2 10 8 24.3 11.9
2 10 -8 25.9 8.9
2 10 -8 21.5 6.6
-2 10 8 14.5 11.4
-2 11 -8 28 9.5
-2 11 -8 11.9 10.9
2 11 8 -1.6 6.4
2 11 8 15.6 13
-2 11 8 27.4 13.4
2 11 -8 13.9 5.8
-2 11 8 -0.9 9.3
2 11 -8 8.5 7.9
2 12 8 -1.4 10.3
-2 12 -8 1.1 3.9
-2 12 -8 2 7.9
2 12 8 0.1 8.3
-2 12 8 -1.8 11.3
2 12 -8 3.8 8.4
2 13 8 8.4 21.8
2 13 8 12.5 14.5
-2 13 8 23.8 25.1
2 13 -8 15.1 12.4
3 0 8 2067.69 101.79
-3 0 -8 2190.88 103.59
3 0 -8 2231.38 101.99
3 1 8 1.5 3.2
3 -1 -8 0.8 2.5
-3 1 -8 1.1 3.1
3 -1 -8 -0.1 3.2
-3 1 8 -1.2 1.7
3 -1 8 -1 2.2
3 1 -8 -2.5 2.3
3 1 -8 0.8 1.6
-3 -1 -8 0.4 3.3
3 -2 -8 932.61 47
3 2 8 958 54.19
3 -2 -8 971.6 54.19
-3 2 -8 905.11 52.59
3 2 -8 884.71 51.09
-3 2 8 899.01 46.2
3 -2 8 957.2 50.89
-3 -2 -8 909.41 54.59
3 -3 -8 16.3 7.4
-3 3 -8 34.6 9.6
3 3 8 9.6 5.7
-3 3 8 36.8 8.4
3 -3 8 36.7 9.1
-3 -3 -8 20 7.7
3 -3 8 33.9 6.9
3 3 -8 33.7 9.1
-3 3 8 25.3 8.5
3 -4 -8 11 5.8
-3 4 -8 15.9 6.6
3 4 8 2 4.4
-3 4 8 4.2 4.8
3 -4 8 10.5 4.5
3 4 -8 31.7 9
-3 -4 -8 6.5 6.4
3 -4 8 7.7 4.6
3 4 -8 14.7 2.8
-3 5 -8 388.56 29.1
3 5 8 416.56 32.9
3 -5 -8 482.05 33.7
3 -5 8 383.96 26.2
-3 -5 -8 359.76 30.5
3 -5 8 414.06 22.8
-3 5 8 394.36 30.4
3 5 -8 388.36 21
-3 5 8 440.46 33.4
3 5 -8 409.06 28.6
-3 6 -8 54.19 11.5
3 6 8 27.3 10.6
3 -6 -8 50.29 12.5
3 6 -8 58.59 8.3
3 6 -8 45.3 9.9
-3 6 8 67.69 14.4
-3 -6 -8 61.99 13.2
3 -6 8 51.59 10.6
-3 6 8 32.7 10.1
3 -7 -8 11.2 6.9
-3 7 -8 8 5.7
3 7 8 5.6 6.4
-3 -7 -8 9.7 6.4
-3 7 8 11.6 8.1
3 7 -8 11.6 5
3 -7 8 18.1 6.9
-3 7 8 11.7 8
3 7 -8 10.1 6
3 8 8 455.45 36.8
3 -8 -8 422.36 29.9
3 -8 -8 375.46 29.5
-3 8 -8 385.76 28.9
-3 8 8 405.06 34.9
3 8 -8 414.16 27.7
3 -8 8 382.26 30.5
-3 8 8 385.06 36.3
-3 -8 -8 428.46 30
3 8 -8 464.45 29.3
3 9 8 -0.6 7.1
3 -9 -8 -2.2 2.2
3 9 8 -0.9 5.3
3 -9 -8 -1.1 2.7
-3 9 -8 2.6 3.9
-3 -9 -8 -1.5 2.7
-3 9 8 0.9 5.3
-3 9 8 -0.7 6.7
3 9 -8 -2.4 2.4
3 9 -8 -2.5 3
-3 10 -8 111.79 20.2
-3 10 -8 116.59 17.2
3 10 -8 114.59 18.3
-3 10 8 119.99 26.1
3 10 -8 118.19 15.8
-3 11 -8 43 10.1
3 11 8 68.79 20.8
3 11 8 16.3 12.2
-3 11 -8 25.5 11.4
3 11 -8 47.9 9.3
-3 11 8 34.3 16.6
3 11 -8 23.4 9.8
-3 12 -8 6.9 9.2
3 12 8 3.6 12
-3 12 8 -1 10.6
3 12 -8 3.4 8.2
3 12 -8 -0.4 3.9
3 12 -8 2.7 5.6
3 13 8 1.6 16.1
-3 13 -8 -2.6 9.8
3 13 8 2.2 15.4
3 13 -8 -1.7 8.8
-3 13 8 3 15.8
4 0 -8 39.7 6.9
4 0 8 45 10.7
-4 0 -8 48 13.5
4 0 -8 45.6 11.8
-4 1 -8 244.08 23.4
4 -1 -8 149.59 21.1
4 -1 -8 203.18 15.6
4 1 8 250.97 23.1
-4 -1 -8 175.58 23
-4 1 8 208.68 15.6
4 1 -8 195.78 24.4
4 1 -8 199.38 13
4 -2 -8 12.6 6.3
-4 2 -8 11.3 6.3
4 -2 -8 35.9 7.9
-4 -2 -8 20.6 8.6
-4 2 8 39 8.4
4 -2 8 23.2 7.2
4 2 -8 37.3 9.1
4 -3 -8 905.71 56.19
4 -3 -8 1010.5 52.69
4 3 8 997.9 58.09
-4 3 -8 1039.2 57.49
-4 -3 -8 1059.49 60.09
4 3 -8 945.31 42.2
4 3 -8 1042.1 55.69
4 -3 8 972.5 49.9
4 -3 8 983.4 52.99
-4 3 8 966.8 51.59
4 4 8 8.7 5.9
4 -4 -8 13.8 6.5
4 -4 -8 25.1 8.6
-4 4 -8 25 8.5
4 -4 8 20.4 6.6
4 -4 8 19.3 6.3
-4 4 8 19 6.9
-4 -4 -8 24.6 8.5
4 -5 -8 43.8 11.8
-4 5 -8 37.1 10.5
4 5 8 13.2 6.6
4 -5 -8 30.9 9.2
4 -5 8 34.6 8.5
-4 -5 -8 26.2 9.7
4 5 -8 33.6 6.2
-4 5 8 23.8 8.6
4 -5 8 40.6 7.7
4 -6 -8 155.48 23.1
4 6 8 162.98 25.9
-4 6 -8 151.48 20.9
-4 -6 -8 162.68 22.3
4 -6 8 161.58 20.5
4 6 -8 163.28 13.4
-4 6 8 172.08 24.4
4 -7 -8 65.09 14.3
4 7 8 37.4 13.5
4 -7 -8 60.79 13.6
-4 7 -8 56.49 12.7
4 7 -8 72.29 11.4
-4 7 8 53.99 14.2
-4 -7 -8 82.19 15.9
4 -7 8 52.89 12.2
4 -8 -8 105.19 16.9
4 8 8 101.09 20.3
4 -8 -8 87.09 15.8
-4 8 -8 83.09 15.9
4 8 -8 78.29 13
4 -8 8 102.49 16.9
-4 -8 -8 117.69 17.9
4 -9 -8 -0.3 3.8
4 -9 -8 4.4 4.4
4 9 8 -0.3 5.8
-4 9 -8 0.7 4.6
4 -9 8 -5.9 3
4 9 -8 -2.3 3.4
-4 -9 -8 4 4.6
-4 9 8 -4.1 5.1
-4 10 -8 -1.6 3.2
4 10 8 -0.2 8.7
4 10 8 -0.2 6.7
-4 10 8 1.4 7.8
4 10 -8 3.6 4.9
4 10 -8 -2.6 4.7
4 11 8 38.6 16.4
4 11 8 19.6 14.4
-4 11 -8 66.59 14.1
-4 11 8 34.4 17
4 11 -8 46.3 14.6
4 11 -8 64.19 13.9
4 11 -8 69.99 12.6
-4 12 -8 1.5 5.5
4 12 8 -2.2 10.5
4 12 8 2.3 13
4 12 -8 6 7.4
4 12 -8 5 5.7
-4 12 8 -1.9 10.5
4 12 -8 2 8
4 13 8 12.6 17.4
5 0 -8 957.8 55.69
5 0 8 896.31 54.79
-5 0 -8 962 57.59
5 0 -8 949.11 46.1
5 1 8 48.2 12.5
-5 1 -8 10.7 6.6
5 -1 -8 7.5 5
5 -1 -8 21 6.2
-5 -1 -8 23.6 9.6
5 1 -8 27.3 9.2
5 1 -8 20.9 5.2
5 -1 8 13.6 7.5
5 2 8 683.53 46.2
5 -2 -8 767.72 40.9
-5 2 -8 739.53 47.3
5 -2 -8 652.53 45.3
-5 -2 -8 673.03 47.1
5 -2 8 799.32 54.89
-5 2 8 678.73 39
5 2 -8 668.83 33.8
5 -3 -8 277.37 26.5
-5 3 -8 280.47 26.4
5 -3 -8 285.67 23.4
5 3 8 255.97 26.1
-5 -3 -8 257.77 33.2
-5 3 8 286.77 26.7
5 -3 8 271.07 21.9
5 -3 8 312.87 24.9
5 -4 -8 35.3 10.4
5 -4 -8 38.4 10.8
-5 4 -8 62.39 13.2
5 4 8 45.7 12.9
5 -4 8 45.5 10.2
5 -4 8 49.9 11.3
-5 -4 -8 61.19 14.7
-5 4 8 43 10.2
5 -5 -8 0.3 4.2
-5 5 -8 -0.4 3.9
5 -5 -8 -4.8 3.5
5 -5 8 1.7 3.3
-5 5 8 0.2 4.3
-5 -5 -8 0 2.7
5 -5 8 -4.4 2.2
5 6 8 103.49 21.3
5 -6 -8 124.09 21.3
-5 6 -8 123.69 19.6
5 -6 -8 105.39 18.8
5 -6 -8 83.69 16
-5 6 8 92.39 18.4
5 -6 8 99.89 16.7
-5 -6 -8 108.99 19
-5 7 -8 183.98 23.8
5 7 8 153.08 24
5 -7 -8 172.88 23.5
5 -7 -8 164.48 23.8
-5 -7 -8 155.08 23
5 7 -8 147.09 17.1
5 -7 8 204.78 24.9
5 -8 -8 458.75 34.2
5 -8 -8 442.56 34.6
-5 8 -8 453.55 35
5 8 8 479.45 41
-5 -8 -8 519.15 35.8
-5 8 8 493.05 41.1
5 -8 8 482.75 36.4
5 -9 -8 107.39 17.1
5 -9 -8 140.49 19.3
-5 9 -8 119.89 19.7
5 9 8 115.79 29.1
5 -9 8 115.79 20.1
-5 -9 -8 155.98 19.4
5 9 -8 119.19 17.6
-5 9 8 109.19 23.2
5 10 8 200.48 31.9
-5 10 -8 263.67 30.6
5 10 -8 213.28 27.4
5 10 -8 231.58 27.1
-5 10 8 187.78 32.6
5 11 8 -2.8 8.9
-5 11 -8 3.5 5.9
5 11 -8 0.5 6.2
-5 11 8 11.9 13.8
5 11 -8 0.8 6.6
-5 12 -8 11.6 8.1
5 12 8 12.5 14.5
5 12 8 12.8 17.5
-5 12 8 2.8 15
5 12 -8 12.8 7.8
5 12 -8 13.1 10.1
5 12 -8 12 10.5
6 0 -8 91.19 18.4
6 0 8 97.99 17.7
-6 0 -8 71.99 17.7
6 0 -8 69.49 10.8
6 -1 -8 103.19 18.6
6 1 8 105.99 20.8
6 -1 -8 121.69 15.6
-6 1 -8 140.89 21
6 1 -8 104.19 12.7
6 -1 8 97.19 19
-6 -1 -8 178.08 27.5
6 -2 -8 102.19 15.8
-6 2 -8 127.99 20.7
6 2 8 65.09 15.2
6 -2 -8 129.69 21.6
-6 -2 -8 93.19 19.5
6 2 -8 107.69 12.3
6 -2 8 114.29 19.8
6 3 8 9.6 7.5
-6 3 -8 9 7.3
6 -3 -8 0.8 3.7
6 -3 -8 6.7 5.5
6 -3 8 2.3 4.9
-6 -3 -8 10.2 8.1
6 -3 8 13.2 6.5
6 -4 -8 6.2 6.1
6 -4 -8 1.2 4.3
6 -4 -8 -1.1 4.1
-6 4 8 1.5 4.2
6 -4 8 -1.8 2.4
-6 -4 -8 6.2 5.7
6 -4 8 -2.6 3.3
6 -5 -8 183.18 24.7
-6 5 -8 177.58 26.6
6 -5 -8 184.08 27.9
-6 -5 -8 200.68 28.9
-6 5 8 122.49 19.7
6 -5 8 159.88 16.3
6 -5 8 172.98 22.7
6 6 8 44.7 15.5
-6 6 -8 50.19 12.7
6 -6 -8 49.5 13.1
6 -6 -8 61.09 15.9
6 -6 -8 55.39 14.1
6 -6 8 48.5 9
-6 -6 -8 69.79 16.4
6 -6 8 51.09 13.1
-6 6 8 49.3 14.1
6 7 8 41.8 13.4
6 -7 -8 65.29 14.9
-6 7 -8 65.99 15
6 -7 -8 90.89 19.7
6 -7 -8 72.99 15.9
-6 -7 -8 69.29 15.3
-6 7 8 41.5 12.5
6 -7 8 53.79 13.4
6 -8 -8 89.39 20
-6 8 -8 49.7 14
6 -8 -8 49.9 12.3
6 8 8 25.4 12.8
6 -8 -8 45.2 13.3
6 8 -8 49.7 11.5
-6 -8 -8 48.2 12.2
6 -8 8 48.1 12.6
-6 8 8 52.59 16.4
6 8 -8 53.69 15.2
6 -9 -8 21 8.2
-6 9 -8 13.7 8.8
6 9 8 3.9 7.7
6 -9 -8 25.9 8.9
-6 9 8 14.1 11.4
6 9 -8 6.2 6.3
-6 -9 -8 17.3 7.9
6 9 -8 10.3 9
6 -9 8 8.6 7.4
6 10 8 -0.4 8.8
6 -10 -8 -1.5 3.1
-6 10 -8 -4.7 3.9
6 -10 8 -1.4 5.3
6 10 -8 1.7 6.9
6 10 -8 -2.2 4.8
-6 10 8 -6 8.8
-6 11 -8 28.8 11.7
6 11 8 46.2 20.9
6 11 8 42.6 18.9
6 11 -8 10.8 10.7
6 -11 8 17.6 12
6 11 -8 9 12.3
-6 11 8 14.1 14.1
6 12 8 -0.4 15.5
6 12 8 -0.6 15.3
-6 12 -8 1.8 6.8
-6 12 8 0 24.4
6 12 -8 1.6 9.3
-7 0 -8 312.87 30.8
7 0 -8 275.27 22.1
7 0 8 303.17 29.3
7 -1 -8 1171.38 60.39
7 1 8 1232.18 70.59
7 -1 -8 1201.58 69.29
-7 1 -8 1172.68 70.29
7 -1 8 1121.39 67.49
-7 -1 -8 1131.09 70.29
-7 2 -8 209.58 29.2
7 -2 -8 235.78 32.6
7 -2 -8 153.08 23.4
7 -2 -8 220.18 20.3
7 2 8 166.28 23.6
-7 -2 -8 198.38 27.4
7 2 -8 238.18 17.9
7 -2 8 177.68 24.2
7 -3 -8 267.47 35.2
7 -3 -8 219.48 25.9
-7 3 -8 261.57 33.9
7 -3 -8 162.68 22.7
7 3 8 257.67 36.5
-7 -3 -8 300.07 39.1
7 -3 8 207.08 24.6
7 -3 8 235.48 23.5
7 -4 -8 87.29 17
-7 4 -8 62.49 15
7 -4 -8 79.69 17.5
7 -4 -8 67.29 17.2
-7 -4 -8 79.59 18.3
-7 4 8 70.89 14.5
7 -4 8 61.69 14.1
7 -4 8 86.09 15.5
-7 5 -8 3.3 5.7
7 -5 -8 1.3 5.3
7 -5 -8 -1.9 3.7
7 -5 -8 2.3 5.8
7 -5 8 0.7 3.5
7 -5 8 -1.5 4.4
-7 5 8 1.5 4.9
-7 -5 -8 0.9 4.4
7 -6 -8 112.49 22.7
-7 6 -8 108.09 20.6
7 -6 -8 96.79 19.9
7 -6 -8 66.49 16.3
7 6 8 66.49 17.4
7 -6 8 103.49 18.4
7 -6 8 124.89 16.4
-7 -6 -8 75.29 18.6
7 -7 -8 114.99 21.8
7 7 8 93.69 21.7
7 -7 -8 164.18 24.1
-7 7 -8 123.69 22.6
7 -7 -8 114.29 22.7
7 7 -8 113.99 22.1
7 -7 8 113.69 20
-7 -7 -8 90.49 19.2
-7 7 8 125.59 22.6
-7 8 -8 61.39 16.7
7 -8 -8 41.9 12
7 -8 -8 14.4 10.5
7 8 8 37 15
7 -8 8 27.7 11.3
-7 8 8 49.7 16.5
-7 -8 -8 35.6 11.6
7 8 -8 34.7 13.4
7 -9 -8 171.58 24.7
7 -9 -8 218.08 26.6
7 -9 -8 153.18 28.4
7 9 8 125.59 25.5
7 9 -8 191.18 24.6
7 -9 8 161.98 26.1
-7 -9 -8 152.18 21.4
7 9 -8 200.08 30.9
-7 9 8 165.28 29
7 10 8 6.1 10.4
-7 10 -8 0.2 5.4
7 -10 -8 -4 3
7 -10 -8 9.6 6.4
-7 10 8 -1.5 9.7
7 10 -8 1.8 6.8
7 10 -8 0.9 7.9
7 -10 8 -4.7 5
7 11 8 15.1 18
-7 11 -8 17 10.6
-7 11 8 26.4 19.3
7 -11 8 6.7 9.3
7 11 -8 5.8 10
7 11 -8 10.1 9.7
-7 12 -8 8 8.6
7 -12 8 -6 6.6
8 0 8 406.56 35.8
-8 0 -8 386.26 36.8
8 0 -8 349.27 35.1
8 -1 -8 7 5.5
8 1 8 -3 3
-8 1 -8 7.3 7.4
-8 -1 -8 2.7 5.7
8 1 -8 1 3.6
8 1 -8 -0.7 5.2
8 -1 8 3.5 3.8
8 -2 -8 112.39 21.9
8 -2 -8 178.78 22.7
-8 2 -8 135.09 22.2
8 -2 -8 122.39 23.8
8 2 8 191.48 31.2
8 -2 8 121.59 20.3
8 2 -8 163.48 19
-8 -2 -8 123.79 22.3
8 -3 -8 6.5 6.4
8 -3 -8 0.8 5.1
8 -3 -8 3.3 6.2
-8 3 -8 4.6 6.9
-8 -3 -8 4.8 7.2
8 3 -8 14.6 8.3
8 -3 8 7.2 7.3
8 -3 8 7.1 6.7
-8 4 -8 870.41 58.09
8 -4 -8 784.72 54.59
8 -4 -8 796.22 51.09
8 -4 -8 845.82 57.99
8 -4 8 824.42 51.79
8 -4 8 782.82 50.89
-8 -4 -8 757.42 56.19
8 4 -8 743.23 55.49
-8 5 -8 87.79 19.1
8 -5 -8 83.29 17.7
8 -5 -8 77.19 17.5
8 -5 -8 65.89 16.5
8 5 -8 71.49 17.7
8 -5 8 74.19 14.8
-8 -5 -8 71.49 18.9
8 -5 8 98.09 19.1
-8 6 -8 1.8 5.5
8 -6 -8 4.9 6.4
8 -6 -8 -2.3 4.2
8 -6 -8 2.6 7
8 6 8 -2.1 6
8 -6 8 5.1 5
8 -6 8 5.1 6.3
8 6 -8 -0.3 5.4
-8 -6 -8 6 6.7
-8 6 8 -3.4 4.8
8 -7 -8 14.1 10
8 -7 -8 8.9 8.4
8 7 8 8.3 9.7
8 -7 -8 21.7 9.5
-8 7 -8 10.5 8.4
8 -7 8 4.1 7.2
-8 7 8 17.1 10.8
8 -7 8 10.4 4.7
-8 -7 -8 15 9.2
8 7 -8 5.1 8.5
8 -8 -8 12 8.2
8 -8 -8 8.4 8.9
8 -8 -8 8.3 8
8 8 8 8 10
-8 8 -8 0.9 5.1
8 8 -8 5.8 8.8
8 -8 8 6.4 8.4
-8 8 8 4.7 10.4
-8 -8 -8 8.9 7.4
8 -9 -8 14.1 8.3
8 -9 -8 27.5 9.8
8 -9 -8 25.7 14.2
8 9 8 16 14
-8 9 -8 14.6 9.7
8 9 -8 10 10.5
8 -9 8 29 12.4
-8 -9 -8 11.1 7.9
-8 9 8 12.7 12.3
-8 10 -8 6.3 7.8
8 -10 -8 3.1 5.1
8 -10 -8 4.1 5.7
8 10 8 -2.6 10.5
8 -10 8 12.7 10.9
-8 10 8 -3.3 11.9
8 10 -8 5.6 10.6
-8 11 -8 15 11
8 11 -8 4.5 12
-8 11 8 15.7 22.3
8 -11 8 12 11
8 11 -8 -2 8.3
-8 12 -8 147.59 33.6
8 -12 8 89.89 23.5
9 0 8 896.31 62.29
9 0 -8 887.71 52.49
-9 0 -8 1040.3 67.39
9 -1 -8 -3.9 2.9
-9 1 -8 -3.3 3.5
9 1 8 7 8.8
-9 -1 -8 -5.3 4.1
9 1 -8 -0.7 3.4
9 -1 8 0.4 4.8
9 -2 -8 0.5 4.3
9 -2 -8 -0.2 4.9
9 -2 -8 -3.4 4.1
-9 2 -8 -0.5 4.5
-9 -2 -8 0.2 6.3
9 2 -8 1.2 4.1
9 -2 8 7.3 7.4
-9 3 -8 36.7 13.2
9 -3 -8 44.9 11.9
9 -3 -8 21.3 10.1
9 -3 -8 88.39 20.4
-9 -3 -8 56.89 17.7
9 -3 8 52.79 15.3
9 -3 8 58.29 14.8
9 -4 -8 11.3 8
9 -4 -8 2.4 7
9 4 8 11.7 9.9
-9 4 -8 3.9 7
9 -4 -8 1.5 5.6
9 -4 8 6.6 7.1
-9 -4 -8 1.2 6.7
9 -4 8 -1.1 6.1
9 4 -8 23.5 11.5
-9 5 -8 124.59 23.2
9 -5 -8 131.79 25.7
9 -5 -8 141.99 24.8
9 -5 -8 194.78 27.5
-9 -5 -8 157.98 28.9
9 -5 8 151.38 22.9
9 -5 8 128.19 22.3
9 5 -8 153.48 26.8
-9 6 -8 72.69 20.5
9 -6 -8 48.1 17
9 -6 -8 82.09 18.9
9 6 8 87.59 24.3
9 -6 -8 87.29 18.9
9 -6 8 53.59 15.2
9 -6 8 69.79 14.2
9 6 -8 78.99 22
-9 -6 -8 48.4 15.6
9 -7 -8 111.89 23.4
-9 7 -8 103.59 24
9 -7 -8 116.79 23.2
9 -7 -8 144.49 25.5
9 7 8 120.79 27.3
-9 -7 -8 94.99 20.8
9 -7 8 118.79 16.6
9 7 -8 112.89 25.2
9 -7 8 112.69 21.5
9 -8 -8 86.79 21.5
9 -8 -8 75.49 19.3
-9 8 -8 99.99 21.6
9 8 8 141.69 30.8
9 -8 8 62.29 16.7
-9 8 8 79.79 20.7
9 8 -8 72.39 19.6
-9 -8 -8 113.49 22.9
-9 9 -8 36.5 14
9 -9 -8 65.79 19.2
9 9 8 65.99 22.6
-9 9 8 38.9 17.4
-9 -9 -8 54.69 14.3
9 -9 8 103.49 23
9 -10 -8 225.08 22.3
9 -10 -8 248.08 40.3
-9 10 -8 211.68 33.7
9 10 -8 213.78 30.8
-9 10 8 190.58 35.4
9 10 -8 163.48 31.6
9 -10 8 164.68 29.2
-9 11 -8 5.1 9.6
10 0 -8 29 9.9
-10 0 -8 21.1 13.4
10 -1 -8 -2.6 4.4
-10 1 -8 44.7 17
10 -1 -8 45.2 12.2
10 1 8 -3.2 4.8
10 -1 8 19.4 12
10 1 -8 8.2 8.8
-10 -1 -8 11.3 10.7
10 1 -8 35.5 10.5
10 -2 -8 -2.1 4.4
10 -2 -8 15.5 7.9
-10 2 -8 -3.2 4.3
10 -2 -8 2.3 7.4
10 2 8 -3.9 4.8
-10 -2 -8 1.1 6
10 2 -8 0.1 4.1
10 2 -8 -1.2 5.8
10 3 8 13.4 10.1
10 -3 -8 23.7 10.1
-10 3 -8 30.6 11.9
10 -3 -8 26.3 11.3
10 3 -8 24.8 8.7
-10 -3 -8 28.1 11.8
10 -3 8 14.2 9.2
10 -4 -8 11.2 9.7
10 4 8 9.9 10.9
-10 4 -8 13.6 11.7
10 -4 -8 -2.4 4.4
10 4 -8 5.2 8.4
10 -4 8 12.7 9.5
10 -4 8 6.8 6.6
-10 -4 -8 16.4 10.1
10 -5 -8 24.3 13.8
10 -5 -8 26.8 12.6
10 -5 -8 17.8 10.9
-10 5 -8 12.6 10
10 5 8 36.1 15.8
10 5 -8 8.1 8.7
-10 -5 -8 17.3 12.8
10 -5 8 6.3 7.5
10 -5 8 7.3 7.4
10 -6 -8 -1.1 6.2
10 -6 -8 2 6.4
-10 6 -8 6 9.2
10 -6 -8 8.1 8.4
10 6 8 -2.5 7.3
10 -6 8 7.2 8
10 -6 8 1.7 6.5
-10 -6 -8 0 6.7
10 6 -8 3.5 9.3
10 -7 -8 2.7 5.3
-10 7 -8 8.3 9.1
10 -7 -8 -0.7 7.3
10 7 8 -1.7 8.7
10 -7 -8 12.7 8.9
-10 -7 -8 9.9 9.3
10 7 -8 0.2 8.6
10 -7 8 7 5.9
10 -7 8 -0.2 6.1
10 -8 -8 1.9 5.9
-10 8 -8 -3.8 4.6
10 8 8 -1.3 10.2
10 -8 -8 12.1 10.4
10 -8 -8 -0.2 7.5
10 -8 8 5 8.9
-10 -8 -8 -4.3 5
10 8 -8 -2.1 9.3
10 -9 -8 26.5 12.4
10 -9 -8 21.8 11.6
-10 9 -8 17.4 10.6
10 -9 8 7.8 9.9
-10 -9 -8 35.2 12.1
10 9 -8 47.7 19.5
-10 10 -8 2.6 8.7
10 -10 -8 -2.4 8.3
10 -10 -8 -3.3 5
10 10 -8 16.8 24.3
-10 11 -8 -1.4 7.7
10 -11 8 -3.2 8.7
11 0 -8 776.12 51.89
11 0 -8 890.31 69.89
-11 0 -8 842.62 65.39
11 -1 -8 16.8 12.9
-11 1 -8 -0.9 4.7
11 1 8 -2.3 5.9
11 -1 -8 2.6 5.7
11 1 -8 -3.3 6.2
11 1 -8 -0.6 5
11 -1 8 5.3 11.2
11 -2 -8 306.07 34.9
11 -2 -8 296.17 42.9
-11 2 -8 388.36 49.3
11 2 8 293.27 40.5
11 2 -8 309.47 27.9
-11 -2 -8 291.07 43.1
11 2 -8 249.18 37.7
11 -3 -8 -2.4 6.7
11 -3 -8 -4.1 4.9
11 -3 -8 -2.5 4.9
-11 3 -8 -2.3 5.1
11 3 8 -0.2 7
11 -3 8 -1.5 4.7
11 3 -8 -4.1 3.6
11 3 -8 9.5 9.3
-11 -3 -8 -3.4 5.4
11 -3 8 -0.2 5.5
11 -4 -8 22.6 10.9
-11 4 -8 17.9 11.1
11 -4 -8 -3.4 6.2
11 -4 -8 21.4 12.7
11 4 8 22.4 15.9
11 -4 8 11.2 9.4
11 -4 8 63.39 17.2
11 4 -8 23.5 12.4
-11 -4 -8 43.1 17
11 -5 -8 87.39 22.4
11 -5 -8 62.09 16.7
11 -5 -8 42 17.9
-11 5 -8 28.9 13.7
11 -5 8 68.49 18.6
-11 -5 -8 50.89 17.8
11 5 -8 52.49 21.6
11 -5 8 50.99 16.1
11 6 8 10.2 13.5
11 -6 -8 60.69 17.9
11 -6 -8 22.8 12.4
-11 6 -8 57.19 19.8
11 -6 8 26.5 11.5
11 -6 8 30.8 13.3
11 6 -8 36 17.1
-11 -6 -8 43.5 16.7
11 7 8 29.6 25.4
11 -7 -8 26.3 16.2
11 -7 -8 55.79 18
11 -7 -8 39.4 14.4
-11 7 -8 12.5 11.3
-11 -7 -8 28.6 13
11 -7 8 20.5 9.6
11 -7 8 43.7 16
11 7 -8 12.7 13.8
-11 8 -8 33.9 17.1
11 -8 -8 23.8 14
11 -8 -8 9.3 9
11 -8 -8 23.3 14.9
11 -8 8 21.9 14.4
-11 -8 -8 65.19 17.1
11 -9 -8 5.4 7.8
11 -9 -8 17.1 13.8
-11 9 -8 7.1 11
-11 -9 -8 1.1 6.4
11 -10 -8 68.79 15.8
-11 10 -8 47.2 18.9
11 -10 -8 56.29 23.1
11 -10 8 64.59 20
12 0 -8 45.7 13.8
12 0 8 62.29 18.9
-12 0 -8 87.99 23.2
12 0 -8 68.19 21.9
-12 1 -8 3.2 6.6
12 1 8 9.6 11.4
12 -1 -8 3.1 6.7
12 -1 -8 -0.7 7.5
12 1 -8 -1 8.6
12 1 -8 -5.3 4.1
12 -1 8 3 10
-12 -1 -8 2 7.9
12 -2 -8 80.29 25.8
12 2 8 84.89 25.5
-12 2 -8 122.09 27.8
12 -2 -8 78.19 17.9
12 -2 8 105.89 23.1
-12 -2 -8 102.19 22.9
12 2 -8 88.69 23.9
12 2 -8 149.59 23.5
12 -3 -8 -2.4 5.4
12 3 8 -0.4 8.6
12 -3 -8 16.4 13.4
12 -3 -8 3.4 7.2
-12 3 -8 5.7 10.1
12 3 -8 2.1 10.8
-12 -3 -8 -2.7 8.3
12 -3 8 7.9 8.6
12 3 -8 -1.8 5.2
-12 4 -8 -5.9 4.5
12 -4 -8 12.2 10.8
12 -4 -8 -1 9.2
12 -4 -8 5.7 6.9
12 4 8 1.3 10.4
12 -4 8 2.9 8.7
12 4 -8 -2.7 8.4
-12 -4 -8 -3.5 5.2
12 -4 8 9.6 9.9
12 -5 -8 102.59 24.5
12 5 8 36.1 18.7
12 -5 -8 95.99 21.6
12 -5 -8 94.89 24.2
-12 5 -8 46.4 17.2
12 -5 8 74.69 19.4
-12 -5 -8 75.89 21.9
12 5 -8 53.89 22.2
12 -5 8 130.09 26.7
-12 6 -8 5.6 9
12 6 8 5.2 14.4
12 -6 -8 12.4 11
12 -6 -8 14.6 10.2
12 -6 -8 7.2 12.2
-12 -6 -8 32.5 15.5
12 -6 8 4.6 9
12 -6 8 22.5 12.9
12 -7 -8 38.4 22.7
-12 7 -8 22.6 15.5
12 -7 -8 70.19 19.8
12 -7 -8 34 15.6
12 -7 8 50.89 17.9
-12 -7 -8 34.9 15.7
12 -8 -8 2.8 7.5
-12 8 -8 12.3 13.1
12 -8 -8 13 12.7
12 -8 8 -3.2 7.4
-12 -8 -8 8.1 9.2
12 -9 -8 -0.4 7.7
12 -9 -8 -2.5 8.8
-12 9 -8 2.2 8.7
12 -9 8 12 13.1
-13 0 -8 134.89 29.5
13 0 -8 131.69 24.5
13 0 -8 98.79 29.7
13 0 8 77.99 23
13 1 8 23.1 17.2
13 -1 -8 65.99 18.4
-13 1 -8 87.69 26.5
13 1 -8 61.39 16.5
13 -1 8 42.1 20.7
13 1 -8 35.4 19.2
-13 -1 -8 36.8 16.9
13 -2 -8 11.5 14.4
-13 2 -8 17.8 12.2
13 2 8 8.2 13.7
13 -2 -8 13 9.7
13 -2 8 8.6 11.8
13 2 -8 2.2 7.2
13 2 -8 -3.6 11.5
-13 -2 -8 24.1 13.8
13 -2 8 9 9.6
13 -3 -8 25.3 13.1
-13 3 -8 -0.4 6.7
13 3 8 20.7 16
13 -3 -8 16.1 10.9
13 -3 -8 18.1 17.6
-13 -3 -8 13.7 13.6
13 -3 8 5.2 11
13 -3 8 21.9 12.7
13 3 -8 2.3 12.3
13 3 -8 26.7 11.4
13 -4 -8 -4.7 10.1
13 -4 -8 1.4 6.5
-13 4 -8 -1.4 5.9
13 -4 -8 -1.5 6.6
13 4 -8 3.6 16.5
13 -4 8 -1.3 8.3
-13 -4 -8 24.3 15.5
13 4 -8 8.9 8.3
13 -4 8 -1.6 7.5
-13 5 -8 27 15.7
13 -5 -8 18.2 17.2
13 -5 -8 38.3 16.8
13 -5 -8 79.89 23
13 -5 8 35.7 17.7
-13 -5 -8 78.59 23.8
13 -5 8 74.59 21.8
13 -6 -8 11.4 11.4
-13 6 -8 9.6 10.5
13 -6 -8 -0.2 13.9
-13 -6 -8 -1.8 7.4
13 -6 8 30.5 17.9
-13 7 -8 147.29 35.7
13 -7 -8 111.39 24.9
13 -7 -8 158.18 31.8
-13 -7 -8 106.99 25.5
13 -7 8 94.99 25.4
13 -8 -8 57.39 18.8
-13 8 -8 37.9 18.6
13 -8 -8 23.8 16
-13 -8 -8 36.1 16.7
13 -8 8 107.69 27.5
-14 0 -8 30.6 17
14 0 -8 39 27.3
14 0 8 79.49 26
14 0 -8 86.69 20.5
14 -1 -8 -5.6 13.6
14 -1 -8 18.1 11.7
-14 1 -8 -2.1 9.1
14 1 8 -1.1 12.3
-14 -1 -8 5.7 8.8
14 1 -8 -4.8 13.8
14 1 -8 -0.2 8.1
-14 2 -8 -4.8 6.2
14 -2 -8 26.6 20.8
14 -2 -8 51.59 16.8
14 -2 8 11.3 17.5
14 2 -8 39.1 14.4
14 -2 8 32.9 19
-14 -2 -8 14.8 11.3
14 -3 -8 -0.2 7.2
-14 3 -8 5.8 9.6
14 -3 -8 14.9 11
14 -3 -8 3.9 15.9
14 -3 8 -3.4 9.3
14 3 -8 -4.2 6
14 -3 8 -2.3 11.6
-14 -3 -8 3.6 10.1
14 -4 -8 5.7 9.2
14 -4 -8 4.5 18.8
-14 4 -8 2.9 9.8
14 -4 -8 10.3 10.4
-14 -4 -8 9.5 11.8
14 -4 8 6.8 11.6
14 4 -8 4.6 8.4
14 -5 -8 -1.6 8.4
14 -5 -8 -0.3 6.5
-14 5 -8 2.5 9.5
-14 -5 -8 4.7 9.8
14 -5 8 0.4 9.1
14 5 -8 0.1 7
14 -6 -8 24 15
-14 6 -8 24.8 16.6
14 -6 8 63.79 21.1
14 -7 -8 -0.9 9.2
-14 7 -8 1.3 10.6
14 -7 -8 4.5 9.6
-14 -7 -8 8.2 12.2
14 -7 8 2.7 11.9
15 0 -8 67.89 19.4
15 0 8 35.4 26.2
-15 0 -8 67.39 23.2
15 -1 -8 135.79 27.3
-15 1 -8 144.99 36
15 1 -8 123.89 25.9
15 -1 8 99.59 31.3
-15 -1 -8 136.79 38.7
15 -1 8 129.89 28.6
-15 2 -8 12.8 13.8
15 -2 -8 4.6 9.7
-15 -2 -8 24.3 28
15 -2 8 8.5 12.5
15 2 -8 24.9 14.3
15 -2 8 -6.1 25.5
15 -3 -8 97.39 28
-15 3 -8 81.29 27.2
15 -3 -8 48.4 18.5
15 -3 -8 13.3 27
15 3 -8 96.19 22.9
-15 -3 -8 81.29 25.3
15 -3 8 57.69 20
15 -4 -8 43 19.1
-15 4 -8 51.29 22.4
15 -4 -8 73.79 23.3
15 -4 8 53.59 20
-15 -4 -8 93.99 26.8
15 4 -8 86.99 20.2
15 -5 -8 24.9 16.6
-15 5 -8 8.4 16.2
15 -5 -8 6 10
15 -5 8 13.7 14
15 5 -8 28.2 14.8
-15 -5 -8 2 10.3
16 0 -8 10.3 12.3
-16 0 -8 8 13.8
-16 1 -8 12.4 13.3
16 -1 -8 4.8 10.8
16 1 -8 3.4 10.5
16 -1 8 24.9 16.3
-16 -1 -8 7 12.4
16 -2 -8 1.4 8.8
16 -2 -8 5.9 10.9
-16 2 -8 -6.6 8
16 -2 8 7.9 13.7
-16 -2 -8 33.5 20.1
16 2 -8 28 15.4
0 0 9 -0.7 2.6
0 0 -9 -0.8 3.1
0 1 -9 -0.2 3.3
0 1 9 2.4 2.7
0 1 9 3.6 4.2
0 -1 9 -1.5 2.3
0 -1 -9 5.7 5.7
0 -2 -9 234.08 23
0 2 9 243.68 22.6
0 2 9 244.28 18.2
0 -2 9 238.48 20
0 2 -9 228.48 21.6
0 -3 -9 -0.4 3.6
0 3 9 1.2 3
0 3 9 0.3 3.4
0 3 -9 -4 1.5
0 4 9 10.8 7
0 -4 -9 8.8 7
0 4 -9 20.5 7
0 -5 -9 3.3 4.8
0 5 -9 -0.7 2.5
0 5 9 0.2 3.3
0 5 9 -2.3 3.2
0 -6 -9 157.68 21.5
0 6 9 141.79 22
0 6 9 227.18 27.2
0 7 -9 -1.7 2.4
0 7 9 -4 4.1
0 7 9 0.7 3.8
0 -7 -9 -4.5 2.6
0 7 -9 -3 2
0 8 -9 32 8.5
0 8 9 23.7 10.2
0 8 9 10.1 8.1
0 8 -9 13.1 5.7
0 -8 -9 20.1 7.1
0 9 -9 4.7 5.1
0 9 9 -4.7 4.9
0 -9 -9 -0.6 3.1
0 9 9 -1.5 4.9
0 9 -9 -2.2 2.3
0 10 9 341.57 48.5
0 10 9 392.26 37.2
0 10 -9 390.66 29.5
0 10 -9 398.86 27.3
0 11 9 1.8 9.7
0 11 -9 -0.7 5.6
0 11 -9 -3.5 4.9
0 11 9 -3.8 7.1
0 12 9 2.3 12.9
0 12 -9 7.7 8.7
0 12 9 4.5 12.1
0 13 -9 1.5 10.7
0 13 9 0.6 17.3
1 0 -9 -0.4 3.3
-1 0 9 -3.1 2.2
1 0 9 0 2.6
-1 0 -9 -3.3 2.8
-1 0 9 0.5 1.7
-1 -1 9 1676.13 82.09
-1 1 -9 1734.83 84.99
1 1 9 1684.13 84.09
1 -1 -9 1839.02 92.49
-1 1 9 1679.63 73.89
-1 -1 -9 1644.54 91.19
1 1 -9 1787.62 84.49
1 -1 9 1668.93 82.39
-1 2 -9 30.7 9.5
1 -2 -9 26.7 7.8
1 2 9 31.9 9.9
-1 -2 -9 20.1 7.1
1 -2 9 15.2 5.6
1 -2 9 20.3 3.9
-1 2 9 25.4 6.6
-1 2 9 39.6 10.6
1 2 -9 27.1 8.7
1 -3 -9 155.98 21.7
-1 3 -9 164.48 21.6
1 3 9 221.88 27.3
-1 3 9 181.18 16.6
-1 -3 -9 169.18 23
1 3 -9 200.28 19.1
-1 3 9 221.38 21.5
1 -3 9 183.88 11.5
1 -3 9 179.98 16.3
-1 4 -9 37.6 10.5
1 4 9 39.8 10.1
1 -4 -9 51.29 12.6
1 4 -9 41 9.9
-1 -4 -9 46.6 12.6
-1 4 9 36.9 9.4
1 -4 9 50.49 6.9
-1 5 -9 2.5 3.6
1 -5 -9 -2.6 2.7
1 5 9 -2.5 2.6
1 5 9 0.9 4.1
-1 5 9 -1.2 3.1
1 5 -9 -3.6 1.8
-1 5 9 0 3.3
-1 -5 -9 3.7 5.2
1 -5 9 2.8 3.1
1 6 9 964.7 58.79
-1 6 -9 948.81 52.39
1 6 9 983.6 58.29
1 -6 -9 913.81 56.09
1 6 -9 989.6 52.19
1 6 -9 983.6 44
-1 -6 -9 1000.7 57.59
-1 6 9 866.61 57.39
-1 6 9 1004.1 57.79
1 7 9 108.29 20.5
1 7 9 92.49 18.7
1 -7 -9 73.89 14.8
-1 7 -9 99.69 15.4
1 7 -9 84.89 13.9
-1 7 9 115.89 22.2
1 7 -9 86.19 11
-1 -7 -9 87.79 16.5
-1 7 9 104.19 19.3
1 8 9 23.4 10.9
1 8 9 32 12.4
1 -8 -9 12.1 6.9
-1 8 -9 10 5.7
-1 8 -9 23.7 7.4
-1 8 9 25.7 11.1
-1 -8 -9 16.6 7.4
-1 8 9 11 8
1 8 -9 21.9 6.7
1 8 -9 20.9 6.9
1 -9 -9 2.1 4.2
1 -9 -9 2.8 4
1 9 9 -0.4 6.5
-1 9 -9 1 4.6
1 9 9 -0.2 5.1
-1 9 -9 3.2 4
-1 -9 -9 -1 3.3
-1 9 9 5.7 8.2
1 9 -9 1.4 3.6
-1 9 9 -2.8 5.9
1 9 -9 1.1 5.4
-1 10 -9 2.2 5.6
1 10 9 0.6 5.9
-1 10 -9 3.2 4
-1 10 9 3.6 9
-1 10 9 1.1 7.2
1 10 -9 1.3 5.1
1 10 -9 7.2 5
1 11 9 -1 10.6
-1 11 -9 -1.2 3.8
-1 11 -9 1.5 6.1
1 11 9 5 8.9
1 11 -9 3.4 4.4
-1 11 9 -6 8.3
1 11 -9 -0.3 5.1
-1 11 9 -0.9 7.4
1 12 9 4.3 11.8
-1 12 -9 11.4 9.6
1 12 9 2.4 13.4
-1 12 -9 1.1 4.5
-1 12 9 -10 11.1
-1 12 9 -3.5 9.7
-1 13 -9 -4.4 8.8
1 13 9 -1.4 18.6
-1 13 9 -1.9 17.2
-2 0 9 0.1 1.6
2 0 -9 2 3.6
-2 0 -9 2 3.9
2 0 9 -1.3 2.2
2 1 9 1446.76 74.49
-2 1 -9 1446.56 74.59
2 -1 -9 1486.05 80.89
-2 1 9 1419.96 63.59
-2 1 9 1525.85 74.99
2 -1 9 1478.65 72.99
-2 -1 -9 1238.38 76.09
2 1 -9 1460.65 74.09
2 2 9 54.19 11.1
2 -2 -9 77.49 15.3
-2 2 -9 70.19 14.5
-2 2 9 62.89 9.9
-2 -2 -9 39.8 9.7
2 2 -9 42.9 10.3
2 -2 9 60.29 11.4
-2 2 9 80.79 15.6
2 -3 -9 80.09 16.2
2 3 9 124.39 21.2
-2 3 -9 85.79 14.5
2 -3 9 104.99 9.5
-2 3 9 104.49 14.1
-2 -3 -9 76.59 14.5
-2 3 9 88.09 16
2 3 -9 99.69 15.7
2 -3 9 112.39 15.8
2 -4 -9 330.67 28.4
-2 4 -9 316.47 25.7
2 4 9 296.37 27.4
2 4 -9 300.97 24.7
2 -4 9 342.47 20.1
-2 4 9 293.47 27
2 -4 9 289.67 21
-2 -4 -9 314.47 28.5
-2 5 -9 12.3 6
2 -5 -9 26 9.9
2 5 9 -0.7 3.6
-2 -5 -9 -4.4 2.5
2 5 -9 8.5 2.1
-2 5 9 4.7 5.7
-2 5 9 13 7.2
2 -5 9 6.7 3.9
2 5 -9 12.3 6.1
-2 6 -9 60.69 12.5
2 -6 -9 67.29 13.7
2 6 -9 74.39 8.3
-2 -6 -9 50.99 12.7
2 -6 9 95.49 12.9
2 6 -9 67.59 12.2
-2 6 9 73.59 15.3
2 7 9 1.2 4.3
2 -7 -9 0.2 4.1
2 7 9 -2.9 4.1
-2 7 -9 1.6 4
-2 7 9 -3.7 3.9
2 -7 9 -1.1 3.1
2 7 -9 -0.9 2.6
2 7 -9 2 3.9
-2 -7 -9 0.5 4
-2 7 9 -2.4 3.8
-2 8 -9 -1.1 2.9
2 8 9 -0.8 4.8
2 -8 -9 -0.7 3.8
2 8 9 -3.2 4.3
-2 -8 -9 3.8 5
2 8 -9 -0.1 3.7
-2 8 9 -1.8 5.2
2 8 -9 4.2 3.8
-2 8 9 0.6 5.8
2 -9 -9 84.09 14.2
2 9 9 125.39 24.2
2 9 9 130.49 25
-2 9 -9 116.19 16.8
2 -9 -9 93.39 15.1
-2 -9 -9 90.69 14.6
-2 9 9 98.89 22.1
2 9 -9 91.29 14.4
2 9 -9 112.09 22.8
-2 9 9 139.89 25.1
-2 10 -9 107.19 17.9
2 10 9 121.69 23.1
2 10 9 135.39 31.3
-2 10 -9 147.49 19.4
2 10 -9 123.69 16.7
-2 10 9 103.19 23.1
2 10 -9 112.39 16.9
2 11 9 35.9 18
-2 11 -9 47.1 10.7
2 11 9 14 11.7
-2 11 -9 44.3 13.9
-2 11 9 25 16.1
2 11 -9 36.7 8.7
-2 11 9 31.1 14.6
2 11 -9 40 12.1
-2 12 -9 15.4 10.6
2 12 9 -2.5 12.7
2 12 9 14.6 14.1
-2 12 -9 9.1 6.6
-2 12 9 0.3 12.9
2 12 -9 13.9 6.3
-2 12 9 7.9 11.2
2 12 -9 13.6 15.2
-2 13 -9 16.1 14.4
3 0 9 1.8 3.2
-3 0 -9 3.9 8.2
3 1 9 137.99 20.4
-3 1 -9 208.68 26.8
3 -1 -9 151.18 21.2
3 -1 9 140.79 23.5
-3 -1 -9 137.39 18.7
3 1 -9 111.09 16.3
-3 1 9 168.58 13
3 2 9 -0.1 2.6
3 -2 -9 -1.8 3.3
-3 2 -9 -2.1 2.7
3 2 -9 8.4 6.4
-3 2 9 -1 2.6
3 -2 9 7.9 5.2
-3 -2 -9 8.4 6.2
3 -3 -9 82.89 16.5
3 3 9 85.59 16.2
-3 3 -9 56.09 12.3
3 -3 9 90.39 11.2
-3 3 9 107.99 18.8
3 -3 9 72.89 13.1
-3 3 9 63.49 11.3
-3 -3 -9 83.29 15.9
3 3 -9 76.09 13.2
3 -4 -9 7.6 6.2
-3 4 -9 24.7 8.3
3 4 9 8.9 7
-3 4 9 10.5 6.4
3 -4 9 16.2 5.4
3 4 -9 3.6 4.6
-3 4 9 31.5 11.2
-3 -4 -9 18.6 8.5
3 -4 9 14.8 5.5
-3 5 -9 1002.9 56.59
3 5 9 992 60.39
3 -5 -9 1035.5 59.89
-3 5 9 917.11 55.49
3 -5 9 1022.7 48
-3 5 9 935.41 58.89
3 -5 9 983.3 50.19
-3 -5 -9 976 59.49
3 5 -9 1013.8 55.19
3 5 -9 1012.6 41.9
3 6 9 42.8 12.5
3 -6 -9 63.49 13.6
-3 6 -9 54.99 12.1
3 6 -9 69.49 13.1
3 6 -9 92.29 8.1
-3 -6 -9 95.19 18.2
-3 6 9 71.59 15.1
3 -6 9 75.19 11.8
-3 6 9 61.09 14.6
3 7 9 77.09 18
-3 7 -9 52.69 12.2
3 -7 -9 84.89 16.1
3 7 -9 80.29 10.5
-3 -7 -9 89.79 17.9
3 7 -9 80.69 14.8
-3 7 9 86.09 18.3
3 -7 9 77.09 13.2
-3 7 9 82.09 18.9
3 8 9 21.2 12.1
3 -8 -9 62.29 13.3
3 -8 -9 70.19 14.4
-3 8 -9 30.4 9.5
3 8 9 34.9 13.4
3 -8 9 37.9 10.2
-3 8 9 35.3 12.1
3 8 -9 42.6 8.6
3 8 -9 50.09 11.5
-3 -8 -9 53.19 12.3
3 9 9 -1.2 5.3
3 9 9 0.3 7.4
-3 9 -9 -2.1 2.6
3 -9 -9 1.9 4.5
3 -9 -9 2.8 4.5
3 9 -9 -0.9 5.8
-3 9 9 -4.8 4.7
-3 9 9 7.2 7.6
-3 -9 -9 7 4.8
3 9 -9 -0.6 3.3
-3 10 -9 27.3 8.8
3 10 9 16.8 11.6
3 -10 -9 26.6 6.4
3 10 9 19.7 14.4
3 10 -9 41.1 11.1
-3 10 9 21.1 14.6
3 10 -9 28.3 8.7
3 11 9 2 10
-3 11 -9 2.5 4.9
3 11 9 3.4 9
3 11 -9 2.5 4.6
3 11 -9 0 5.4
-3 11 9 2.7 11
-3 12 -9 95.29 15.7
3 12 9 62.79 20.9
3 12 9 66.69 23.5
3 12 -9 76.79 20
-3 12 9 67.09 24
3 12 -9 70.79 14.4
3 12 -9 97.19 16
4 0 9 -2.1 2.3
4 0 -9 0.1 3.6
-4 0 -9 -2.4 3.2
4 0 -9 -2.4 1.5
4 1 9 708.23 45.3
4 -1 -9 687.13 45.1
4 -1 -9 684.83 35.7
-4 1 -9 651.53 45.9
4 -1 9 668.93 43.1
4 1 -9 650.43 30.9
4 1 -9 590.44 48.1
-4 1 9 654.33 34.7
4 -2 -9 8.3 4.6
4 -2 -9 21.8 9.3
-4 2 -9 20.2 8.4
4 2 9 4 5
4 2 -9 16.7 2.9
-4 -2 -9 21.8 8.3
-4 2 9 16.2 5.5
4 -2 9 11 6.6
4 2 -9 8.4 5.7
-4 3 -9 759.62 48.2
4 -3 -9 752.62 42.9
4 -3 -9 749.73 48.6
4 3 9 726.53 48.8
-4 -3 -9 679.73 48.6
4 -3 9 730.03 43.5
-4 3 9 765.42 42.6
4 3 -9 755.52 46.4
4 3 -9 726.33 30.7
4 -3 9 731.93 41.2
4 4 9 4.2 5.6
4 -4 -9 3.6 5.4
-4 4 -9 12.5 7.5
4 -4 -9 -0.6 3.9
4 -4 9 10.5 5.6
-4 -4 -9 0.6 4.9
4 -4 9 2.8 3.9
4 4 -9 3.9 1.9
-4 4 9 5 4.9
4 4 -9 5.9 6.1
-4 5 -9 267.47 24.8
4 -5 -9 274.07 26.3
4 5 9 218.58 33.9
4 -5 9 234.38 18.1
4 5 -9 226.08 13.9
-4 -5 -9 271.37 26.7
4 -5 9 228.28 19.8
4 5 -9 230.88 22.4
-4 5 9 269.27 24.2
4 6 9 0.7 4.7
4 -6 -9 -1.2 3.4
-4 6 -9 17.5 8.2
4 6 -9 9.5 6.4
-4 -6 -9 1 5
4 -6 9 -1.5 3.2
4 6 -9 3.6 2.9
-4 6 9 3.1 5
4 7 9 59.99 15.4
-4 7 -9 125.69 19.6
4 -7 -9 109.09 19.9
-4 -7 -9 109.19 19.4
4 7 -9 88.99 11.6
4 -7 9 124.89 17.7
4 7 -9 118.39 17.8
4 -8 -9 32.1 11
4 8 9 13.7 9.8
4 -8 -9 17.6 8.1
-4 8 -9 32.8 10.3
-4 -8 -9 11.6 7.4
4 8 -9 12.9 6.8
4 8 -9 25.7 7.5
-4 8 9 29.9 12.4
4 -8 9 14.5 7.5
4 9 9 45.3 15.9
4 -9 -9 55.09 11.5
-4 9 -9 40 11.8
4 -9 -9 37.5 10.6
4 9 -9 41.6 10.6
4 9 -9 27.2 12.2
-4 -9 -9 41.9 10.9
-4 9 9 6.4 8.3
4 -9 9 36 11.2
-4 10 -9 1 5.4
4 10 9 2.1 8.9
4 10 9 -0.2 7.7
4 -10 -9 1.9 3.7
4 10 -9 -1.4 3.9
4 10 -9 -2 4.2
-4 10 9 1.6 8
-4 11 -9 346.67 28.9
4 11 9 286.37 49.1
4 11 9 330.17 52.49
4 11 -9 343.27 27.2
4 11 -9 324.47 28.3
-4 11 9 315.57 43.7
4 12 9 20.9 18.8
-4 12 -9 52.59 13.7
4 12 9 64.69 21.6
4 12 -9 63.29 13.7
-4 12 9 20.4 17
-5 0 -9 -0.7 3.9
5 0 9 4.3 5.4
5 0 -9 1.2 2.5
5 0 -9 -2.2 3.6
5 1 9 63.19 13.9
5 -1 -9 94.99 12.6
-5 1 -9 107.09 21
5 -1 -9 53.29 12.4
5 1 -9 77.89 16.4
-5 -1 -9 79.69 15.4
5 -1 9 82.89 16.2
5 1 -9 74.09 9.2
5 -2 -9 27.1 9.7
5 -2 -9 22.9 7.4
5 2 9 34.9 11.8
-5 2 -9 44.1 13.5
5 2 -9 35.9 9.9
-5 2 9 38.6 8.8
5 2 -9 26 5
-5 -2 -9 11.9 7.7
5 -2 9 34.2 10.8
5 3 9 1.6 5.4
-5 3 -9 26.7 13
5 -3 -9 11.8 6.6
5 -3 -9 15.8 8.8
5 3 -9 6.4 2.6
5 -3 9 3.8 5
-5 -3 -9 5.5 8
5 -3 9 10.3 6.1
-5 3 9 1.7 4.5
5 -4 -9 135.89 19.1
5 -4 -9 132.49 23.3
-5 4 -9 139.39 21.7
-5 -4 -9 109.39 19.1
5 -4 9 179.68 17.5
5 -4 9 152.78 19.1
-5 4 9 151.68 20
-5 5 -9 172.78 23.2
5 -5 -9 189.28 26.3
5 -5 -9 118.49 19.1
5 -5 9 174.48 16.2
5 -5 9 164.78 20.1
-5 -5 -9 198.08 28.4
-5 5 9 128.99 19.9
5 6 9 72.39 18.9
5 -6 -9 78.69 16.9
5 -6 -9 62.69 14.7
5 -6 -9 69.39 15.2
-5 6 -9 83.89 16.6
5 -6 9 74.89 10.5
-5 -6 -9 76.99 18.1
5 6 -9 80.99 10.6
5 -6 9 79.09 14
-5 6 9 79.29 16.7
-5 7 -9 40 11.3
5 7 9 73.69 19.1
5 -7 -9 91.49 19.1
5 -7 -9 55.39 14.9
5 7 -9 46.8 8.9
-5 -7 -9 55.39 13.6
5 -7 9 45.9 11.8
5 8 9 -2.2 6.5
-5 8 -9 3.1 5.5
5 -8 -9 -1.7 4
5 -8 -9 2.1 5.2
5 8 -9 1.2 3.7
5 -8 9 2.5 5.6
-5 8 9 -1.7 6.3
-5 -8 -9 -2.2 3.9
5 -9 -9 0.4 4.4
5 9 9 -2.9 6.2
-5 9 -9 -0.8 4.1
5 -9 -9 5.9 5.7
5 9 -9 0.9 4.4
5 -9 9 -0.6 5.2
-5 -9 -9 -1.2 3.8
-5 9 9 -3.3 6.2
5 10 9 11.2 11.8
5 10 9 13.7 11.4
5 -10 -9 1.3 4.4
5 -10 -9 4.3 4.8
-5 10 -9 -0.1 4.3
5 10 -9 3.5 5.7
-5 -10 -9 4.4 4.7
5 10 -9 5.2 6.5
5 -10 9 5.7 9
-5 10 9 -6.1 7.7
5 11 9 -2.8 9.8
5 11 9 5.2 12.1
-5 11 -9 -4.8 4.4
-5 11 9 -3.7 18
5 11 -9 2.4 5.7
5 11 -9 -0.1 7.2
5 11 -9 -2.8 5.8
5 12 9 4.3 20.4
5 12 9 14.4 29.5
-5 12 -9 4.4 7.5
5 12 -9 6.2 7
5 12 -9 0.4 8.1
-6 0 -9 7.1 6.6
6 0 -9 0.8 3.1
6 0 9 0.2 3.4
6 0 -9 0.6 3.7
-6 1 -9 10.4 7.1
6 -1 -9 31.3 9.9
6 -1 -9 16.3 6.3
6 1 9 8.5 5.4
6 1 -9 20.1 5.7
6 1 -9 14.8 7
6 -1 9 6.8 5.9
-6 -1 -9 47.8 14.4
6 -2 -9 219.08 19.4
-6 2 -9 177.28 26.5
6 -2 -9 177.58 24.5
-6 -2 -9 235.38 32.4
6 -2 9 187.18 24
6 2 -9 203.18 15
-6 3 -9 7.6 7.3
6 -3 -9 12 6.5
6 -3 -9 -0.5 4.1
-6 -3 -9 6.2 7.1
6 3 -9 12.8 4
-6 3 9 4.3 4.7
6 -3 9 17.6 7.3
6 -3 9 16 6.4
-6 4 -9 172.68 25.9
6 -4 -9 200.48 24.7
6 -4 -9 167.58 23.2
-6 4 9 193.98 24.5
6 -4 9 179.28 23.3
6 -4 9 178.98 21.8
-6 -4 -9 200.68 28.7
6 -5 -9 11.1 7.5
6 -5 -9 14 9.3
6 -5 -9 15.5 8.5
-6 5 -9 2.9 5.4
6 -5 9 9.8 5.6
-6 5 9 8.5 6.7
6 -5 9 19 7.8
-6 -5 -9 9.3 8.3
6 6 9 58.79 17.3
6 -6 -9 59.29 14.6
6 -6 -9 37.3 12.2
6 -6 -9 45 12.2
6 -6 9 36.3 8.1
-6 -6 -9 44.7 13.3
6 -6 9 55.59 13.2
-6 6 9 19.9 12.5
6 7 9 -1 5.8
6 -7 -9 10.6 9.8
6 -7 -9 17 9.5
-6 7 -9 -1.9 4
6 -7 -9 9.3 8.2
6 -7 9 4.5 6
-6 -7 -9 -2 3.7
6 7 -9 5.7 4.8
-6 7 9 6.9 7.9
-6 8 -9 5.6 7.4
6 -8 -9 0.3 5.6
6 8 9 1.5 7.5
6 -8 -9 1.7 4.9
6 -8 9 2.6 6
-6 -8 -9 0.6 5.3
-6 8 9 0.3 6.5
6 -9 -9 39.8 11.6
-6 9 -9 25.9 11
6 9 9 22.6 12.8
6 -9 -9 31.2 11.4
6 -9 9 35.9 11.1
6 9 -9 33 12.7
-6 9 9 14 13.3
-6 -9 -9 16.5 7.8
6 9 -9 23.4 8.6
6 -10 -9 187.28 18.8
6 -10 -9 212.58 20.4
6 10 9 191.98 34.9
-6 10 -9 227.68 30.6
-6 -10 -9 227.68 19.4
-6 10 9 180.18 33.3
6 -10 9 181.38 27.1
6 10 -9 224.18 25.8
6 11 9 39.3 21.2
-6 11 -9 57.49 15.7
6 11 9 71.59 24.1
6 11 -9 47.4 13.7
6 11 -9 73.39 15.5
6 11 -9 46.5 15.6
6 -11 9 49.9 16.4
-6 11 9 26.4 18.5
-6 12 -9 25.8 11.4
6 12 -9 10.9 9.3
-6 12 9 5.4 20.8
-7 0 -9 2.7 5.7
7 0 -9 -3 3.1
7 0 -9 3.4 3.9
7 0 9 2 5.2
7 -1 -9 569.94 44.6
7 -1 -9 636.04 38.1
7 1 9 615.74 46.7
7 -1 9 580.64 44.1
7 1 -9 640.24 35.6
-7 -1 -9 654.93 48.6
7 -2 -9 0.8 4.7
7 -2 -9 -0.9 3.1
-7 2 -9 -2 4.2
7 2 9 -1.4 4
7 2 -9 -0.6 2.4
7 -2 9 -2.4 2.8
-7 -2 -9 -6.7 2.7
-7 3 -9 30.1 10.8
7 3 9 51.09 15.2
7 -3 -9 54.29 12.3
7 -3 -9 46.2 13.7
7 -3 9 71.29 14.3
7 -3 9 46.9 13.6
-7 -3 -9 37.3 12.4
7 3 -9 38.5 7.8
7 -4 -9 144.29 27.1
-7 4 -9 131.09 22.9
7 -4 -9 155.38 22.2
7 -4 -9 143.09 23.9
-7 4 9 141.89 20.5
-7 -4 -9 186.88 30.2
7 -4 9 138.09 20
7 -5 -9 144.79 23.3
7 -5 -9 156.08 26.5
-7 5 -9 217.18 31.9
7 -5 -9 171.98 24.5
7 -5 9 170.98 23.2
7 -5 9 165.68 22.3
-7 -5 -9 142.49 24.8
-7 5 9 163.08 23.5
7 6 9 -3.5 3.9
7 -6 -9 5.4 6.8
7 -6 -9 -4.1 3.9
7 -6 -9 -2 4.3
-7 6 -9 -1.4 4.6
-7 -6 -9 -3 3.4
7 -6 9 -1.4 2.9
-7 6 9 1.4 9.1
7 -6 9 -1.8 4.1
7 7 9 55.89 16.1
-7 7 -9 53.49 15.5
7 -7 -9 65.89 16.6
7 -7 -9 49.6 15.2
7 -7 -9 51.99 15.4
-7 -7 -9 60.09 17.2
-7 7 9 73.29 18.2
7 -7 9 38.9 11.5
7 -8 -9 43.9 13.5
7 8 9 16.5 11.5
7 -8 -9 37.9 14.4
-7 8 -9 33.6 12.5
7 -8 -9 50.39 17.2
7 8 -9 35.2 10.1
-7 8 9 12 10.3
7 8 -9 53.99 17.8
-7 -8 -9 42.7 12.5
7 -8 9 25 11.2
7 -9 -9 31.2 10.8
-7 9 -9 26.9 11.7
7 -9 -9 26 11.3
7 9 -9 31.9 10.1
-7 -9 -9 24.1 9.8
-7 9 9 15.6 12.8
7 -9 9 52.19 14.5
7 9 -9 21 12.9
-7 10 -9 -2 5.2
7 10 9 -4.6 10.6
7 -10 -9 2.2 5.7
7 -10 -9 -1.7 4
7 -10 9 -2.1 5.7
7 10 -9 2.5 9.2
-7 10 9 5.3 12.8
7 10 -9 8.3 7.7
-7 -10 -9 0 4.8
-7 11 -9 52.49 18.8
7 11 9 32.1 27.5
7 11 -9 31.5 13.4
7 11 -9 14.7 13.3
-7 11 9 24.5 19.3
7 -11 9 36.3 13.4
7 -12 9 -4.1 7.3
8 0 -9 1.6 4.1
8 0 -9 7.8 6.4
-8 0 -9 -0.2 5.5
8 0 9 -3.3 3.4
8 -1 -9 105.99 22.2
8 -1 -9 69.89 13.4
8 -1 -9 77.49 20.1
-8 1 -9 102.39 21
8 1 9 85.69 19.6
8 1 -9 65.59 12
-8 -1 -9 55.39 16.1
8 -1 9 58.69 14.2
8 -2 -9 185.88 22.5
8 -2 -9 220.48 31.1
8 -2 -9 197.18 32.8
8 2 9 125.99 30.8
-8 2 -9 185.48 27.7
-8 -2 -9 141.69 24.4
8 2 -9 154.38 18
8 -2 9 123.79 20.9
-8 3 -9 5.5 7.5
8 -3 -9 -0.5 3.7
8 -3 -9 -3.4 3.4
8 -3 -9 -3 3.9
8 -3 9 -0.3 5.1
8 -3 9 -3.2 3.5
8 3 -9 1.2 3.6
-8 -3 -9 2.9 6.1
8 -4 -9 -2.3 4.5
8 -4 -9 -1.4 4.4
8 -4 -9 4.3 6.3
8 4 9 -2.1 4.1
-8 4 -9 1.6 5.3
8 -4 9 1.4 5.4
-8 -4 -9 13.6 9.6
8 -4 9 -3.5 3.3
8 5 9 0 5.9
8 -5 -9 3.1 5.7
8 -5 -9 5.7 7.8
8 -5 -9 -4.5 3.9
-8 5 -9 -5.1 3.5
8 5 -9 4.9 7.1
-8 -5 -9 -3.4 3.6
8 -5 9 -2.9 3.4
8 -5 9 7.2 7.1
8 -6 -9 14.1 9.9
-8 6 -9 17.7 9.7
8 -6 -9 25.9 11.5
8 -6 -9 42.7 16.8
8 6 9 17.5 12.3
8 -6 9 22.2 8.4
8 -6 9 33 11.4
-8 6 9 34.2 12.8
-8 -6 -9 33 12.1
8 6 -9 8.5 9.4
8 -7 -9 10.3 9.3
8 -7 -9 6 8.4
8 7 9 -4.4 6.6
8 -7 -9 45.2 14.8
-8 7 -9 21.1 11.5
8 -7 9 18.4 15.4
-8 7 9 8.6 8.5
8 -7 9 13.6 5.8
8 7 -9 28 13.5
-8 -7 -9 20.7 10.3
8 -8 -9 51.19 16.9
8 8 9 12.9 19.9
8 -8 -9 40.3 12.3
8 -8 -9 48 15.8
-8 8 -9 33.8 13.1
8 8 -9 22.9 13.5
-8 -8 -9 14.5 9.2
-8 8 9 42.1 16.6
8 -8 9 24.3 11.8
8 9 9 5.4 12.3
8 -9 -9 18.4 9.6
-8 9 -9 35.8 15
8 -9 -9 13 11.1
8 -9 9 12 9.3
8 9 -9 27.7 14.3
-8 -9 -9 10.8 7.8
8 9 -9 3.7 7
-8 9 9 28.1 21.9
8 10 9 54.29 22.8
-8 10 -9 60.59 17.5
8 -10 -9 68.69 15.1
8 -10 9 60.29 16.5
-8 -10 -9 55.49 13
-8 10 9 40.3 20.2
8 10 -9 51.09 14.1
-8 11 -9 17 11.1
-8 11 9 24.4 21.1
8 -11 9 23.2 13.3
8 11 -9 20 17.9
8 -12 9 1.3 10.1
9 0 9 1.9 7.4
-9 0 -9 -1.9 5.1
9 0 -9 -0.3 4.7
9 0 -9 -1.7 3.8
-9 1 -9 -2.8 3.9
9 -1 -9 0.9 4.4
9 -1 -9 -2.2 3.4
-9 -1 -9 1.9 6.2
9 1 -9 -3 4.7
9 1 -9 -0.5 3.4
-9 2 -9 44.8 13.4
9 -2 -9 44 15.3
9 -2 -9 32.9 10.6
9 -2 9 13.3 7.8
9 2 -9 32.6 9.2
-9 -2 -9 54.99 17.4
9 -3 -9 105.49 18.8
-9 3 -9 113.79 24.3
9 -3 -9 99.29 20.8
9 3 9 117.39 26.3
-9 -3 -9 112.39 24.6
9 -3 9 116.69 23.3
9 3 -9 126.19 17.2
9 -3 9 89.39 18.5
-9 4 -9 11.9 9.9
9 -4 -9 19.2 11.2
9 -4 -9 -4.5 4.6
9 -4 -9 23.5 10.6
9 4 -9 0.9 8.3
9 -4 9 4.9 6.7
-9 -4 -9 13.6 9.7
9 -4 9 14.9 10
9 -5 -9 47.2 17.3
9 5 9 39.1 14.1
-9 5 -9 63.09 17.9
9 -5 -9 83.49 19.8
9 -5 9 73.69 17.5
9 -5 9 87.49 17
-9 -5 -9 63.89 17.3
9 5 -9 74.49 20.7
9 -6 -9 81.79 18.9
-9 6 -9 92.89 22
9 -6 -9 98.69 28
9 -6 -9 48.3 15.6
9 6 9 48.2 17.5
9 6 -9 58.79 19.6
9 -6 9 100.49 17.3
9 -6 9 89.39 18.3
9 -7 -9 40 13.7
-9 7 -9 39.8 14.5
9 -7 -9 37.5 14.4
9 -7 -9 12.3 12.5
-9 -7 -9 35.1 13.5
9 -7 9 32 8.8
9 -7 9 43.9 15
9 7 -9 33.1 15.5
9 -8 -9 0 5.7
9 -8 -9 -3.7 6.4
-9 8 -9 2 7.1
9 8 9 8.5 13.5
9 -8 -9 -3 7
9 -8 9 -2.4 6
9 8 -9 0 8.8
-9 8 9 -3.9 7.7
-9 -8 -9 5.2 7.8
9 -9 -9 6.9 8
-9 9 -9 3.4 8.4
9 -9 -9 6.6 9.3
9 -9 -9 6.7 10
9 9 9 4.6 16.1
9 9 -9 18.5 15.7
9 -9 9 9.8 9.1
-9 -9 -9 4.3 7.3
-9 10 -9 0.2 8
9 -10 -9 -3.2 4.8
-9 -10 -9 3.5 6.3
9 -10 9 0.5 7.9
9 10 -9 10.3 16.1
-9 10 9 4.6 15.5
9 10 -9 -0.6 8.5
-9 11 -9 0.5 7.9
9 -11 9 -2.6 8.8
10 0 -9 -2.4 3.9
10 0 -9 2 6.8
-10 0 -9 -5.2 3.2
10 -1 -9 109.59 24.3
10 -1 -9 91.59 16.6
10 -1 -9 78.19 20
-10 1 -9 122.49 27.5
10 1 -9 89.99 16
-10 -1 -9 121.69 27.8
10 -2 -9 -1.4 4.9
-10 2 -9 7.6 9.1
10 -2 -9 25.7 10.4
10 -2 -9 9.2 8.1
10 2 9 40.4 15.8
10 2 -9 18.9 8.4
10 -2 9 6.9 8.8
10 2 -9 17.8 12.2
-10 -2 -9 41.5 15.6
10 3 9 150.28 27.8
-10 3 -9 103.69 23.1
10 -3 -9 212.08 28.6
10 -3 9 244.18 31.2
10 3 -9 197.78 23.3
10 -3 9 212.18 32.8
10 3 -9 197.28 34.1
10 -4 -9 1.2 7.1
10 4 9 -3.9 6.3
10 -4 -9 0.2 5.2
-10 4 -9 1.1 6.8
10 -4 9 -1 4.6
-10 -4 -9 -0.1 5.5
10 4 -9 -3.9 6.2
10 -4 9 -5.5 3.9
10 4 -9 -2 3.7
-10 5 -9 3.2 6.7
10 -5 -9 3.3 7
10 -5 -9 9.4 8.4
10 5 9 3 9.8
10 -5 9 -3.1 4.7
-10 -5 -9 -0.4 5.9
10 -5 9 7.9 7.8
10 5 -9 1 8.2
10 6 9 16 16.6
10 -6 -9 41.7 14.7
10 -6 -9 28.8 15.2
10 -6 -9 67.09 17.2
-10 6 -9 32.2 14.1
10 6 -9 29.1 17.3
-10 -6 -9 39.7 15.6
10 -6 9 51.69 15.9
10 -7 -9 67.89 18.5
10 7 9 69.39 23.6
10 -7 -9 63.89 19.8
10 -7 -9 76.19 18.5
-10 7 -9 132.09 30
10 -7 9 64.99 13.6
10 7 -9 25.3 15.7
10 -7 9 95.39 20.5
-10 -7 -9 65.69 19.1
10 -8 -9 20.9 11.8
10 -8 -9 7.8 9.7
10 8 9 9.1 15.6
-10 8 -9 2.7 7.9
10 -8 -9 21.9 12.9
10 8 -9 2.3 11.6
-10 -8 -9 7.6 8.5
10 -8 9 0.4 6.9
-10 9 -9 17.2 12.4
10 -9 -9 24.3 12.1
10 -9 -9 33 16.2
10 -9 9 20.3 12.7
-10 -9 -9 10.2 8.9
10 -10 -9 7 7.7
-10 10 -9 17.8 14.1
10 -10 -9 19.8 14.8
10 -10 9 2.5 16.4
11 0 -9 0.3 8.2
11 0 -9 -1.2 4.6
-11 0 -9 -1.3 4.7
11 0 9 -1.2 6.6
11 -1 -9 5.8 10
11 1 9 0.1 8.7
11 -1 -9 3.5 6.5
-11 1 -9 4.1 14.4
11 1 -9 -3.2 3.6
11 -1 9 -4.8 5.9
-11 -1 -9 1.9 6.2
11 1 -9 8.9 11.7
-11 2 -9 76.09 20.8
11 -2 -9 67.69 16.5
11 2 9 66.89 22
11 -2 -9 62.59 16.5
11 -2 -9 37.6 17.1
11 2 -9 72.19 23.4
11 2 -9 73.79 15.5
-11 -2 -9 87.49 23.5
-11 3 -9 -3.5 4.7
11 3 9 -0.1 8
11 -3 -9 -1.9 8.4
11 -3 -9 5.5 6.8
11 -3 -9 4 7.6
11 3 -9 -4.7 3.5
-11 -3 -9 4.7 6.8
11 3 -9 -1.4 6.7
11 -3 9 9.1 7.9
11 -3 9 -6.7 4.2
11 -4 -9 5.4 7.6
11 -4 -9 1 7.6
-11 4 -9 -4.2 4.4
11 -4 -9 -2.1 4.7
11 4 9 4.6 11.2
11 -4 9 0.6 6.7
11 -4 9 -0.4 6.1
11 4 -9 -0.5 10
11 4 -9 -3.7 4.4
-11 -4 -9 -2.8 4.7
11 5 9 -0.8 8.5
-11 5 -9 9.8 11.5
11 -5 -9 5.2 8.5
11 -5 -9 -0.1 8.1
11 -5 -9 5.2 7.4
11 -5 9 -3 6.3
11 5 -9 3.5 11.3
11 -5 9 2.2 8
-11 -5 -9 6.8 10.3
11 -6 -9 38.9 15.1
-11 6 -9 52.39 20.3
11 -6 -9 36.5 14.5
11 6 9 24.4 15.6
11 -6 -9 -3 8.3
11 -6 9 30.3 14.3
11 -6 9 12.8 9.5
11 6 -9 5.2 11.3
-11 -6 -9 20.9 11.7
-11 7 -9 2.4 7.8
11 -7 -9 1.4 6
11 7 9 4 14.9
11 -7 -9 3 8.7
11 7 -9 3.1 14.4
-11 -7 -9 0.3 7.5
11 -7 9 0.2 5.3
11 -7 9 -0.4 7.5
11 -8 -9 -0.2 6.6
-11 8 -9 -1.8 6.6
11 -8 9 -2.3 7.8
-11 -8 -9 2.9 8.1
11 -9 -9 -3.4 8
11 -9 -9 0.8 7.9
-11 -9 -9 7 9.5
11 -9 9 3.6 10.4
-11 10 -9 -2.4 8.6
11 -10 -9 -4 5.8
11 -10 -9 23.9 17.7
11 -10 9 5.5 11.6
12 0 -9 5.8 11.4
12 0 9 -1.4 8.3
12 0 -9 0.5 5
-12 0 -9 8.4 8.8
12 1 9 77.79 23.4
12 -1 -9 83.69 18.8
12 -1 -9 69.09 24
-12 1 -9 64.59 21.4
12 1 -9 48.3 21.5
-12 -1 -9 52.99 17.6
12 1 -9 68.39 16.4
-12 2 -9 146.79 32.1
12 -2 -9 177.88 29
12 -2 -9 193.48 33.4
12 2 9 176.28 36.2
12 -2 -9 140.69 30.8
12 2 -9 194.28 26.1
12 -2 9 207.68 31.3
12 -2 9 137.99 27.9
-12 -2 -9 163.48 35.6
12 2 -9 159.38 36.7
12 -3 -9 89.09 23.3
12 3 9 155.88 34.1
12 -3 -9 94.89 26.4
-12 3 -9 112.79 25.2
12 -3 -9 125.69 24.4
-12 -3 -9 159.18 33.5
12 3 -9 123.19 31.2
12 -3 9 54.59 18.5
12 -3 9 118.29 23.8
12 3 -9 123.29 20.6
12 -4 -9 0 9.9
12 -4 -9 2 7.1
-12 4 -9 3.3 9.6
12 4 9 3.4 12.5
12 -4 -9 -2.9 5.3
12 -4 9 4 8.3
12 -4 9 -2.4 6.4
12 4 -9 -3.3 10.6
12 4 -9 -1.9 4.9
-12 -4 -9 4.1 8.7
-12 5 -9 61.19 20.7
12 -5 -9 74.69 19.6
12 -5 -9 83.39 20.8
12 5 9 38.8 33.7
12 -5 -9 45.2 19.9
12 -5 9 76.19 20.8
12 5 -9 9.8 18.3
-12 -5 -9 73.49 21
12 5 -9 74.99 15.7
12 -5 9 67.09 18.7
-12 6 -9 40.5 18.3
12 -6 -9 57.29 17.9
12 -6 -9 100.59 22.8
-12 -6 -9 56.19 18.3
12 6 -9 55.89 25.3
12 -6 9 52.69 16.3
12 -6 9 68.49 20.8
-12 7 -9 9 11.5
12 -7 -9 13.8 11.6
12 -7 9 0.2 8.3
-12 -7 -9 19.3 14.5
12 -8 -9 1.6 9.6
12 -8 -9 -2.8 6.4
-12 8 -9 8.2 10.9
12 -8 9 13.7 12.3
-12 -8 -9 -6.8 6.1
-12 9 -9 14.8 13.8
12 -9 -9 43.9 16.2
12 -9 -9 77.79 25.3
12 -9 9 31.2 17.1
-12 -9 -9 31.6 13.7
13 0 9 3.6 11.3
13 0 -9 -4.8 5.2
-13 0 -9 -3.7 5.4
13 0 -9 -2 11.7
-13 1 -9 7.9 9.5
13 -1 -9 45.8 15.2
13 -1 -9 -3.9 9.6
13 1 9 1.5 13.6
-13 -1 -9 42.8 18.1
13 1 -9 22.4 19.9
13 -1 9 1.4 9.7
13 1 -9 0.3 6
13 -2 -9 16.9 17.1
-13 2 -9 -1 6.8
13 -2 -9 9.2 9.7
13 2 9 5.9 14.8
13 -2 -9 2.2 7.5
13 2 -9 -0.1 6.2
13 -2 9 16.6 12.4
13 2 -9 5.7 14.3
-13 -2 -9 -4 4.8
13 -2 9 11.4 14.2
-13 3 -9 42.9 18.7
13 -3 -9 27.3 13.3
13 3 9 1.6 12.9
13 -3 -9 29.5 13.1
13 -3 9 17 16.5
13 3 -9 11.8 15.1
13 -3 9 6 9.9
-13 -3 -9 18.6 12.9
13 3 -9 33.2 12.4
13 -4 -9 0.4 13.6
13 4 9 -1.8 15.4
-13 4 -9 -4.5 5.8
13 -4 -9 5.2 8.5
13 -4 -9 0.9 6.8
13 4 -9 5.8 8.1
13 -4 9 -0.9 8.6
13 -4 9 -0.4 9.1
-13 -4 -9 16.9 12.7
13 -5 -9 13.8 17.7
13 -5 -9 47.6 17.7
-13 5 -9 36 17.6
13 -5 -9 67.49 21.1
13 -5 9 68.49 24
-13 -5 -9 29.7 14.2
13 5 -9 58.19 16.3
-13 6 -9 36.2 18.9
13 -6 -9 8.7 10.9
13 -6 -9 40.6 16.7
13 -6 9 16.5 14.3
-13 -6 -9 17.1 13.7
-13 7 -9 4.4 11.5
13 -7 -9 -1.7 9.1
13 -7 -9 13.4 11.7
13 -7 9 11 12.5
-13 -7 -9 16.2 12.7
13 -8 -9 1.5 11.4
-13 8 -9 2.5 9.7
-13 -8 -9 16.1 13.5
13 -8 9 10 12.9
14 0 9 13.3 17.8
14 0 -9 -4.6 16.4
14 0 -9 -2.3 6.3
-14 0 -9 -4.7 6.4
-14 1 -9 -5.1 6.9
14 -1 -9 10.3 22.2
14 1 9 0.2 16
14 -1 -9 -4.3 6.1
14 -1 9 -3.2 11.7
-14 -1 -9 -4.7 5.5
14 1 -9 3.1 8.2
-14 2 -9 -4.9 6.9
14 -2 -9 0.1 7.3
14 -2 -9 -6.3 5.4
14 2 9 -4.5 16.2
14 -2 -9 -0.5 20.7
14 2 -9 -5 5.9
-14 -2 -9 -6.9 5.2
14 -2 9 -6.7 6.1
14 -2 9 3.2 14.2
-14 3 -9 6.7 10.3
14 -3 -9 5.3 10.1
14 -3 -9 -0.9 7.1
14 -3 -9 0.1 17.6
-14 -3 -9 1.3 8.7
14 -3 9 -1.8 12.3
14 3 -9 4.8 7.4
14 -3 9 -2.5 7.6
-14 4 -9 -6.2 6.3
14 -4 -9 -4.1 5.5
14 -4 -9 0 8.2
14 -4 -9 2.4 17.6
14 -4 9 -2.4 8.2
-14 -4 -9 -1 8.9
14 4 -9 4.5 9.3
14 -5 -9 -2.8 8.8
-14 5 -9 -3.7 6.8
14 -5 -9 -1.2 8.7
-14 -5 -9 -3.1 9.1
14 5 -9 0.5 7.3
14 -5 9 -3.9 7.1
14 -6 -9 12.2 12.2
14 -6 -9 3.1 9.2
-14 6 -9 14.1 12.8
14 6 -9 15.4 11.5
-14 -6 -9 3.9 11.6
14 -6 9 8.4 13.4
15 0 -9 -8.6 6.6
-15 0 -9 -1.1 10.2
15 -1 -9 10.5 11.6
15 1 -9 2.2 9.8
15 -1 9 -8.8 6.8
-15 -1 -9 9.6 13.3
15 -2 -9 -4.3 5.6
-15 -2 -9 -8.5 6.9
15 -2 9 -0.8 8.9
15 2 -9 4.3 9.1
15 -3 -9 7.8 10.5
15 -3 -9 6.9 8.2
-15 -3 -9 1.2 9.2
15 3 -9 3.6 8.7
15 -3 9 34.6 19.3
-15 4 -9 3.3 22.3
15 -4 -9 -0.6 9.8
15 -4 -9 3.4 11
15 -4 9 2.8 10.7
-15 -4 -9 -3.3 8.3
15 4 -9 15.8 13.2
0 0 10 11.3 3.6
0 0 -10 2.4 4.3
0 0 10 2.1 4
0 1 -10 0.6 3.5
0 1 10 0.6 3.3
0 1 10 0.5 2.4
0 -1 -10 -3.2 2.4
0 -1 10 2.2 1.7
0 2 -10 20.9 8.4
0 -2 -10 10.7 6.9
0 2 10 12.7 6.2
0 -2 10 24.9 7.5
0 2 10 21.2 6.1
0 -3 -10 -1.5 3.8
0 3 -10 -0.3 3.4
0 3 10 0.4 3.7
0 3 10 -3.4 2
0 -4 -10 518.85 37.9
0 4 10 489.05 33.1
0 4 -10 465.15 33.9
0 4 10 451.55 36.1
0 5 10 -4.2 2.9
0 5 -10 -3.9 1.8
0 -5 -10 -0.3 3.4
0 5 10 -0.3 3.6
0 6 -10 531.35 36.5
0 6 10 589.34 43
0 -6 -10 545.05 40.5
0 6 10 580.54 40.7
0 7 -10 -3.6 2.3
0 7 10 -1.7 3.4
0 -7 -10 -2.4 3.9
0 7 10 4.4 5.1
0 8 10 20.1 10.9
0 8 10 -2.2 4.4
0 -8 -10 20.5 8.4
0 8 -10 8.6 6
0 -9 -10 2.5 5.3
0 9 -10 -3 4.6
0 9 -10 0.6 3.7
0 9 10 3.9 8.2
0 -10 -10 5.8 4.3
0 10 -10 21.2 8.1
0 10 10 7.3 10
0 10 -10 4.3 5.6
0 10 10 15.9 13.5
0 11 10 3.9 10.9
0 11 -10 3.4 6.6
0 11 -10 -4.2 3.4
0 12 -10 108.09 23.4
0 12 10 80.79 25.4
0 12 10 84.69 23.7
0 12 -10 103.79 18
-1 0 10 780.32 34.9
1 0 10 687.73 45.3
1 0 -10 689.43 46.8
-1 0 10 788.52 46.7
-1 0 -10 792.72 48.9
1 -1 -10 308.57 28.6
-1 1 -10 384.76 30.4
-1 -1 10 286.87 30
-1 -1 -10 374.86 31
-1 1 10 375.16 29.4
-1 1 10 338.97 21
1 -1 10 358.26 28.9
1 1 -10 381.06 29.9
1 2 10 110.39 18.6
-1 2 -10 133.49 21
1 -2 -10 119.89 17.5
1 2 -10 136.39 20.7
-1 2 10 134.89 21.2
1 -2 10 111.09 16.5
-1 -2 -10 85.99 14.9
-1 2 10 136.29 14.9
1 -2 10 120.09 8.4
1 3 10 31.1 9.1
-1 3 -10 75.49 15.7
1 -3 -10 36.3 9.8
1 -3 10 55.69 11.2
1 3 -10 69.39 14.3
1 -3 10 47.5 5.4
-1 3 10 42.6 9.1
-1 3 10 27.1 8.5
-1 -3 -10 41.6 10.4
1 -4 -10 29 9.6
-1 4 -10 26.3 8.5
1 4 10 35.5 11.8
-1 4 10 6.9 6.2
1 4 -10 18.1 7.2
1 -4 10 22.9 4.3
-1 -4 -10 8.9 6.7
-1 4 10 6.6 5.5
1 5 10 198.68 25.2
-1 5 -10 140.19 20.4
1 5 10 152.38 23.7
1 -5 -10 177.88 25.1
1 5 -10 175.58 22.5
-1 5 10 145.49 20.7
-1 5 10 169.78 25.1
-1 -5 -10 168.48 26.2
1 -6 -10 87.29 16.4
-1 6 -10 109.49 16.9
1 6 10 152.18 22.6
1 6 10 63.89 14.3
-1 6 10 98.49 18.6
1 6 -10 100.49 16.7
-1 6 10 152.68 21.9
-1 -6 -10 90.69 17.5
1 7 10 340.77 31.9
-1 7 -10 341.47 27
1 -7 -10 322.37 28.9
1 7 -10 296.07 24.9
-1 -7 -10 333.87 29.6
-1 7 10 275.37 32.6
-1 7 10 374.46 39.3
-1 8 -10 69.09 14.1
1 8 10 67.19 17.5
1 8 10 30.7 11.6
1 -8 -10 87.09 16.5
-1 8 10 31.1 11.9
1 8 -10 84.39 11.3
1 8 -10 52.69 12.1
-1 -8 -10 82.99 15.5
-1 9 -10 105.69 16.9
1 9 10 104.19 29.7
1 -9 -10 116.59 18
1 9 10 112.09 23.8
-1 9 10 97.19 22
1 9 -10 117.39 17
1 9 -10 128.19 15.8
-1 -9 -10 111.89 17.7
-1 9 10 77.99 26.1
1 10 10 53.29 16.5
-1 10 -10 68.89 13.3
1 -10 -10 68.39 11.2
1 10 10 46 16.7
-1 10 10 69.69 21
-1 10 10 35.9 14.5
1 10 -10 55.99 12
1 10 -10 68.49 13.9
-1 -10 -10 75.49 11.7
-1 11 -10 4 5.3
1 11 10 2.6 11.8
-1 11 10 23.4 15.8
1 11 -10 5.3 6.4
1 11 -10 2 4.9
-1 12 -10 20.1 10.7
1 12 10 1.1 11.9
1 12 10 -0.2 13
-1 12 10 1.6 13.5
-1 12 10 5.9 13.8
1 12 -10 20.7 10.9
2 0 10 82.29 16.3
-2 0 10 42.6 5.9
2 0 -10 56.49 13
-2 0 -10 56.39 14.2
2 1 10 139.69 20.2
2 -1 -10 179.48 23.9
2 -1 10 150.58 21.4
-2 1 10 161.18 12.6
2 1 -10 127.99 25.7
-2 1 10 112.39 16.6
2 2 10 63.49 15.1
-2 2 -10 102.89 18.9
2 -2 -10 65.59 14.9
-2 2 10 64.29 15
-2 2 10 90.49 12.3
2 2 -10 72.49 14.5
-2 -2 -10 70.29 16
2 -2 10 69.89 12.8
2 3 10 279.47 28.1
-2 3 -10 422.66 31.8
2 -3 -10 386.96 32.3
2 3 -10 363.56 29.3
-2 -3 -10 371.76 32.3
-2 3 10 391.76 31.9
2 -3 10 374.06 27.1
-2 3 10 386.06 26.5
2 -3 10 364.96 20.9
-2 4 -10 517.55 36.4
2 -4 -10 432.46 36.5
2 4 10 476.45 37.6
-2 4 10 475.55 33.3
2 -4 10 496.35 26.9
-2 -4 -10 553.74 40.7
2 -4 10 462.65 30.2
-2 4 10 493.85 38
2 4 -10 591.84 37.4
2 -5 -10 529.75 40.3
-2 5 -10 551.54 37.9
-2 -5 -10 510.35 39.9
2 5 -10 517.15 36.3
-2 5 10 548.95 37.9
2 -5 10 555.84 29.8
2 6 10 61.09 15.4
-2 6 -10 56.99 13.6
2 -6 -10 67.69 16.7
-2 6 10 70.89 16.4
2 -6 10 78.69 11.5
2 6 -10 77.49 14.8
-2 6 10 68.39 14.8
-2 -6 -10 35.3 12
2 7 10 8.6 7.6
2 -7 -10 14.9 7.6
-2 7 -10 2.2 4.7
-2 -7 -10 4.8 5.4
2 7 -10 4.3 4.9
-2 7 10 8.7 11.5
-2 7 10 3.2 6.4
2 7 -10 14.3 4.2
2 8 10 4.9 7.8
2 -8 -10 2 5.2
2 8 10 -2.1 4.8
-2 8 -10 4.2 5.3
-2 8 10 7.8 7.4
2 8 -10 -0.5 2.7
-2 -8 -10 3.6 5.4
2 8 -10 5.8 4.8
-2 8 10 -3.5 4.5
2 9 10 42.3 16.1
-2 9 -10 23.5 8.9
2 -9 -10 30.9 9.8
2 -9 -10 29.6 10.1
2 9 10 34.5 12.9
2 9 -10 30.3 9.2
2 9 -10 17.5 6.3
-2 -9 -10 44.9 11.3
-2 9 10 49.99 16.5
-2 9 10 23 12.7
2 -10 -10 0.2 3.5
-2 10 -10 0.1 4.2
2 10 10 -2.3 6.3
2 10 10 -4.9 7.1
2 -10 -10 -2.4 3.3
-2 -10 -10 2.8 4.2
2 10 -10 -0.2 3.6
-2 10 10 -1.2 7.4
2 10 -10 1 4.3
-2 10 10 4.7 9.9
2 11 10 68.79 23.1
-2 11 -10 41.6 11.1
2 11 10 17.8 14.2
-2 11 10 19.3 15
2 11 -10 26.7 9.5
-2 11 10 20.5 15.2
2 11 -10 28.9 9.6
2 12 10 38.6 21.5
2 12 10 71.69 22.9
-2 12 -10 98.59 19.2
2 12 -10 84.89 17.4
-2 12 10 86.79 27.1
2 12 -10 106.59 15.8
-2 12 10 56.59 24.7
3 0 -10 187.58 25.6
-3 0 -10 194.98 25.4
3 0 10 195.18 26.4
3 1 10 54.39 13.8
3 -1 -10 37.1 9.7
-3 1 -10 36 10.3
-3 1 10 38.2 7.1
3 1 -10 47.6 12.8
-3 -1 -10 39.9 11.8
3 -1 10 36.1 9.7
3 2 10 115.69 21.1
3 -2 -10 78.99 17.2
-3 2 -10 90.49 17.6
3 2 -10 62.79 13.3
-3 -2 -10 67.79 14.5
-3 2 10 105.79 13.7
3 -2 10 108.19 18.6
3 -3 -10 91.79 17.9
3 3 10 137.39 23.7
-3 3 -10 151.48 22.9
-3 -3 -10 82.79 15.9
-3 3 10 135.59 22.2
-3 3 10 101.09 14.4
3 -3 10 107.69 17.3
3 3 -10 108.39 17.4
3 -3 10 87.39 11.5
3 4 10 88.69 17.2
-3 4 -10 135.59 20
3 -4 -10 119.09 18.7
-3 4 10 169.78 21.4
3 -4 10 155.28 19.3
-3 4 10 116.09 20.4
-3 -4 -10 141.89 21.8
3 4 -10 136.39 20.8
3 -4 10 148.99 13.3
-3 5 -10 31.8 9.7
3 -5 -10 23.2 8.9
3 5 -10 34.2 10
-3 5 10 43.3 11.6
-3 -5 -10 28.7 10.8
3 -5 10 11.8 4.9
3 -5 10 18.7 6
-3 6 -10 528.75 38.9
3 -6 -10 610.04 43.1
3 6 10 554.84 43.5
3 6 -10 571.24 38.7
-3 6 10 529.45 40.1
3 6 -10 563.14 25.2
3 -6 10 580.34 34.4
-3 -6 -10 627.94 43.9
-3 6 10 573.84 44
3 7 10 -1.2 4.2
3 -7 -10 0.8 4.2
-3 7 -10 0.2 4.2
-3 7 10 2.5 6.2
-3 -7 -10 15.9 6.5
3 -7 10 -2.6 2.7
3 7 -10 -2.1 2.7
3 7 -10 -1.8 1.9
3 8 10 -0.4 6.1
3 8 10 4.2 7.8
3 -8 -10 0.8 4.7
-3 8 -10 4.6 6
3 8 -10 5.2 3.9
3 8 -10 3.1 4.5
-3 8 10 0.8 6.7
-3 8 10 8.6 8.2
3 -8 10 1.5 4.4
-3 -8 -10 0.6 5.4
3 9 10 13.7 11.3
3 -9 -10 3.8 6
3 -9 -10 1.2 4.7
3 9 10 10.7 9.2
-3 9 -10 -0.5 4.1
3 9 -10 -1.3 4
-3 -9 -10 2.7 4.7
-3 9 10 2.9 7.1
-3 9 10 -4.2 6.2
3 9 -10 7.9 4.9
3 -10 -10 9.2 5.7
-3 10 -10 18.3 8.8
3 10 10 21.5 13.7
3 -10 -10 7.3 5.5
3 10 10 10.9 12.4
-3 10 10 6.7 11.1
3 10 -10 14 7.5
-3 -10 -10 6.6 5.2
3 10 -10 5.1 5.3
-3 11 -10 3 5.9
3 11 10 -1.7 8.8
3 11 -10 1.5 5.2
3 11 -10 4.5 5.5
-3 11 10 -4.3 10.5
-3 12 -10 -0.2 5.2
3 12 10 -3.2 14.8
3 12 10 7.4 14.9
3 12 -10 2.4 5.2
-3 12 10 11.3 17
3 12 -10 -3.7 6.1
4 0 -10 239.58 16
4 0 10 189.48 24.8
4 0 -10 305.67 35.1
-4 0 -10 293.87 36.7
4 -1 -10 153.38 13.2
-4 1 -10 111.59 17.6
4 1 10 155.58 24.4
4 -1 -10 148.39 22.8
-4 1 10 132.99 12.2
4 1 -10 96.59 17
4 -1 10 144.89 22.7
-4 -1 -10 124.49 19.7
4 2 10 25.5 8.4
-4 2 -10 10.6 7.8
4 -2 -10 29 10.4
-4 -2 -10 48.1 14.7
4 2 -10 25.4 8.1
4 -2 10 20 7.6
-4 2 10 17.3 5.9
4 3 10 198.08 29.1
4 -3 -10 152.68 21.9
-4 3 -10 178.78 33.2
-4 3 10 198.98 18.3
-4 -3 -10 152.78 22.2
4 -3 10 194.78 24
4 -4 -10 59.59 14
-4 4 -10 70.39 16.4
4 -4 10 52.09 11.5
-4 -4 -10 76.89 17.4
4 4 -10 71.59 15.1
-4 4 10 51.49 11.9
4 -4 10 64.89 11.5
-4 5 -10 550.84 40.1
4 -5 -10 532.25 41.1
4 -5 10 550.14 33.5
4 5 -10 478.85 36.5
-4 -5 -10 540.55 41.9
-4 5 10 571.04 38.6
4 -5 10 510.55 31.9
4 6 10 0.8 4.6
4 -6 -10 -0.8 4.5
-4 6 -10 0.9 5
-4 -6 -10 3.8 6.1
-4 6 10 -0.3 4.7
4 -6 10 7.7 5.3
4 6 -10 9.1 6.3
4 6 -10 4.5 2.4
4 -7 -10 84.59 16.7
4 7 10 33.7 12
-4 7 -10 98.39 17.8
4 7 -10 74.99 15.6
-4 -7 -10 85.09 18.9
4 7 -10 84.19 9.7
4 -7 10 98.29 16.3
-4 8 -10 3.2 4.8
4 -8 -10 3.5 5.6
4 8 -10 2.8 3.5
-4 8 10 3.1 7
-4 -8 -10 4.2 6
4 8 -10 3.3 4.8
4 -8 10 6.3 6
-4 9 -10 1.3 5.3
4 9 10 -1.7 6.4
4 -9 -10 -0.5 4.2
4 -9 -10 -2.1 3.7
-4 9 10 7.2 9
-4 -9 -10 1.9 5.5
4 9 -10 -3.7 3.1
4 9 -10 -0.9 3.1
4 -9 10 1.3 4.8
-4 10 -10 1.2 5.3
4 -10 -10 3.3 4.9
4 -10 -10 7.6 6.1
4 10 10 4.7 9.6
4 10 10 2.6 9.5
-4 10 10 10.1 10.8
4 10 -10 4.3 5.7
4 10 -10 -2.1 4.4
-4 -10 -10 5.2 5.2
4 11 10 2.3 12.8
-4 11 -10 1.3 6.2
4 11 10 -4.6 9.5
4 11 -10 -0.4 5.3
4 11 -10 2 5.8
-4 11 10 4 13.3
-4 12 -10 37.6 11.9
4 12 10 14.9 27.6
4 12 10 18.1 24.6
4 12 -10 35.3 10.7
5 0 -10 1165.28 55.39
5 0 -10 1162.98 68.99
5 0 10 1150.28 68.19
-5 0 -10 1338.77 74.09
5 -1 -10 67.99 10.7
5 -1 -10 48.6 11.7
-5 1 -10 67.99 15
5 1 10 67.39 16.4
5 1 -10 40.9 10.5
5 1 -10 54.39 7.6
-5 -1 -10 34.9 12.5
5 -1 10 52.69 12.9
5 2 10 -0.6 4.1
-5 2 -10 2.7 4.8
5 -2 -10 1.2 4.6
5 -2 -10 0.8 3.8
-5 2 10 -0.3 2.8
5 2 -10 6.4 5.7
5 2 -10 -1.5 1.4
5 -2 10 0.2 3.7
-5 -2 -10 -3.8 3.7
-5 3 -10 25.6 9.8
5 -3 -10 29.5 8.8
5 -3 -10 43.7 13.4
5 -3 10 47.9 10.2
5 3 -10 31.3 9.8
-5 3 10 14.4 6.9
-5 -3 -10 40.3 13.5
5 3 -10 32.7 4.3
5 -4 -10 42.8 11
-5 4 -10 17.3 9.6
5 -4 -10 53.89 14.8
5 -4 10 27.6 9
5 4 -10 60.09 14.6
5 4 -10 36.5 4.4
-5 -4 -10 47 14.3
-5 4 10 26.7 8.6
5 -4 10 35.4 8.7
5 -5 -10 203.38 28.5
-5 5 -10 101.39 24.8
5 5 -10 159.68 10.3
-5 -5 -10 143.19 25
-5 5 10 148.79 22.8
5 -5 10 168.68 16.5
5 -5 10 168.68 21.1
5 -6 -10 125.39 23.6
5 6 10 107.49 21.7
-5 6 -10 121.59 21
5 6 -10 125.99 9.9
-5 6 10 131.29 22.6
-5 -6 -10 113.99 20.1
5 -6 10 119.39 17.3
5 -6 10 123.19 11.7
5 6 -10 107.49 18.3
-5 7 -10 2.1 5
5 -7 -10 -0.7 5.2
5 -7 -10 2.2 5.1
5 7 10 0.6 6.3
5 7 -10 -1.6 3.2
-5 -7 -10 -1.8 4.2
5 7 -10 -3 2.1
-5 7 10 -2.3 5.1
5 -7 10 8.5 6
5 8 10 61.49 18.2
-5 8 -10 45.2 13.2
5 -8 -10 22.4 10.9
5 -8 -10 47.7 13
5 -8 10 47.5 12.4
5 8 -10 58.79 14.1
-5 8 10 56.29 16.5
5 8 -10 34.9 7.9
-5 -8 -10 82.69 17.7
5 -9 -10 -1.1 4.9
5 9 10 -1.3 7.2
-5 9 -10 5.8 6.9
5 -9 -10 -1.2 4.3
5 9 -10 0.1 4.7
-5 -9 -10 0.1 4.8
5 -9 10 -1.5 4.5
5 9 -10 0.6 4.4
5 10 10 7.7 12.8
-5 10 -10 8.5 7.6
5 -10 -10 13.5 7.4
5 -10 -10 15.6 7.5
5 10 10 7.9 12
5 -10 10 4.6 7.1
5 10 -10 8.9 7.2
-5 10 10 14.7 14.2
5 10 -10 8.8 6.4
-5 -10 -10 3.4 4.8
-5 11 -10 -2 5.3
5 11 10 -3.2 11.7
5 11 10 -3.1 10.8
-5 11 10 -3.9 11.2
5 11 -10 2.9 8.9
5 11 -10 0.7 5.3
5 11 -10 -1.4 5.8
-5 12 -10 5.3 8.3
-5 12 10 -0.4 17.5
6 0 -10 207.78 16.5
6 0 -10 165.68 25.2
-6 0 -10 158.68 26.2
6 0 10 210.18 28.2
-6 1 -10 -1 4.2
6 -1 -10 4 6.1
6 1 10 -1.8 5.2
6 -1 -10 4.2 4.2
6 1 -10 5.9 7.1
-6 -1 -10 18.4 10.3
6 1 -10 15.6 4.8
6 -1 10 8 7.5
6 -2 -10 273.37 33.8
-6 2 -10 204.68 30.6
6 -2 -10 197.48 22.5
6 -2 10 260.97 32.9
-6 -2 -10 228.18 30.5
6 2 -10 204.88 15.1
6 2 -10 278.37 27
6 3 10 42.3 14.7
6 -3 -10 43.5 14
6 -3 -10 42.1 10.7
-6 3 -10 71.39 17.6
6 3 -10 57.49 7.6
6 3 -10 48.7 13.1
6 -3 10 56.49 11.9
6 -3 10 55.99 14.6
-6 -3 -10 46.9 13.7
-6 3 10 48.5 11.2
6 -4 -10 641.84 47.5
-6 4 -10 628.34 47.3
6 -4 -10 694.43 43.9
-6 4 10 641.34 42.3
6 -4 10 600.64 39.9
-6 -4 -10 720.33 51.39
6 4 -10 615.84 31
6 4 -10 635.14 45.4
6 -4 10 628.64 41.9
6 -5 -10 -1.8 3.8
-6 5 -10 -2.1 3.3
6 -5 -10 -2.5 3.8
-6 -5 -10 -7.4 2.5
6 -5 10 0.9 4
-6 5 10 -1.1 4.5
6 -5 10 -1.6 3.6
6 -6 -10 7.3 8.7
6 -6 -10 10.6 8.7
-6 6 -10 11 7.9
6 -6 -10 7 6.6
6 6 10 11.4 9.4
6 6 -10 16.4 5.2
-6 -6 -10 33.8 11.5
6 -6 10 29.3 9.9
6 -6 10 17.8 6.1
6 -7 -10 42 12.6
6 7 10 41.5 14.3
-6 7 -10 96.79 20.3
6 -7 -10 56.89 17
-6 -7 -10 45.4 14.9
6 -7 10 48.6 12.1
6 7 -10 51.59 9
-6 7 10 52.99 15.5
-6 8 -10 4.6 5.6
6 -8 -10 7.7 8.1
6 8 10 -2.2 7.1
6 -8 -10 4.2 7.4
6 -8 10 2.2 6
-6 -8 -10 -3.6 3.8
6 8 -10 1.1 3.9
-6 8 10 0.1 8.6
6 -9 -10 6 7.4
6 -9 -10 13.8 9.6
-6 9 10 -2.8 8.1
-6 -9 -10 5.3 6.8
6 -9 10 9.4 8
6 9 -10 3.4 5.6
-6 10 -10 -0.8 5.5
6 10 10 8 12.9
6 -10 -10 0.4 4.8
6 -10 -10 1.2 5.9
-6 -10 -10 1.5 4.4
-6 10 10 8.3 13.2
6 -10 10 -1.4 6
6 10 -10 -1.4 5
6 10 -10 7.1 7.1
6 10 -10 2.3 8.4
-6 11 -10 -1.4 5.7
6 11 10 0.2 15.1
6 11 10 5.7 14
6 -11 10 -4.6 5.6
6 11 -10 0.4 6.3
6 11 -10 -2.6 9.2
6 11 -10 5.3 7.8
-6 11 10 -4.4 12.7
7 0 -10 57.09 10.7
7 0 10 53.69 14.6
-7 0 -10 92.89 21.3
7 0 -10 98.59 20.3
7 -1 -10 315.27 39.3
7 -1 -10 241.68 20.8
-7 1 -10 212.28 29.3
-7 -1 -10 188.18 28.3
7 1 -10 268.67 19.5
7 -1 10 275.87 34.4
7 1 -10 196.68 25.7
7 2 10 254.07 35.6
7 -2 -10 223.68 32
-7 2 -10 229.08 33.8
7 -2 -10 197.78 23.2
7 2 -10 199.58 16.2
-7 -2 -10 187.68 29.2
7 2 -10 256.87 33.9
7 -2 10 238.48 30.1
7 -3 -10 3 4.5
7 -3 -10 -2.9 3.9
-7 3 -10 -3.6 2.7
7 -3 10 -2.2 3
7 3 -10 -2.4 1.9
7 -3 10 -0.5 4.2
-7 -3 -10 -4.6 3
-7 4 -10 458.75 40.7
7 -4 -10 455.65 40.2
7 -4 -10 451.15 35.3
7 -4 -10 444.76 41
-7 -4 -10 495.25 43.2
7 4 -10 453.25 26.7
7 -4 10 493.75 35.2
7 -4 10 501.15 36.9
-7 4 10 495.45 36.1
7 -5 -10 -1.1 4.6
7 -5 -10 -0.6 4.8
7 -5 -10 4.9 8.2
-7 5 -10 -0.5 4.9
7 5 10 0.2 4.8
-7 5 10 9.9 7.6
-7 -5 -10 1.1 5.2
7 -5 10 -2.1 2.7
7 -5 10 8.3 7.4
7 6 10 -1.3 5.7
7 -6 -10 6.9 8.8
7 -6 -10 2.4 6.4
7 -6 -10 1 4.4
-7 6 -10 6.4 7.3
7 -6 10 7.7 5.4
-7 -6 -10 -2.8 3.7
7 -6 10 1.1 5.1
-7 6 10 -4.2 4.9
7 -7 -10 40.9 14.8
7 -7 -10 58.89 16.1
7 -7 -10 51.49 14.6
-7 7 -10 46.1 15.1
7 7 10 3.8 7.7
-7 7 10 34 13.7
-7 -7 -10 27.1 11.5
7 -7 10 27.9 10.2
7 7 -10 51.89 9.9
7 -8 -10 -1 5.8
7 8 10 -2 7
-7 8 -10 6 7
7 -8 -10 -2.7 4.4
-7 -8 -10 -1.7 4.8
-7 8 10 1.3 8.3
7 8 -10 9.8 6.9
7 -8 10 2.6 6.5
7 -9 -10 289.07 34.1
7 9 10 191.58 34.6
-7 9 -10 213.68 31.5
7 -9 -10 236.88 32.4
7 9 -10 232.08 21.1
-7 9 10 212.18 33.5
7 9 -10 229.88 34.7
-7 -9 -10 237.88 30.5
7 -9 10 206.28 29.5
-7 10 -10 -3 5.1
7 -10 -10 -2.9 5.3
7 -10 -10 0.5 4.9
7 10 -10 7.4 8
7 10 -10 -0.3 9.2
-7 10 10 -1.2 13
7 -10 10 2.5 7.4
-7 -10 -10 -2.3 4.3
7 10 -10 -1.4 5.4
-7 11 -10 70.89 19.4
7 11 -10 91.19 20.6
7 11 -10 54.39 19.8
7 -11 10 69.99 19.8
8 0 10 11.2 8.4
8 0 -10 3 4.4
8 0 -10 9.3 6.7
-8 0 -10 -1.7 5.3
8 1 10 -2.8 3.7
-8 1 -10 5.5 6.8
8 -1 -10 1.4 4.4
8 -1 -10 3.8 4.5
8 1 -10 -0.2 3.4
8 1 -10 -0.1 5.9
8 -1 10 4.7 6.9
-8 -1 -10 0 6.1
-8 2 -10 163.38 30.1
8 -2 -10 186.78 23.5
8 -2 -10 205.68 31.3
-8 -2 -10 207.88 33.4
8 -2 10 229.58 33.2
8 2 -10 145.59 17.7
8 3 10 0.4 4.7
-8 3 -10 -2.5 3.6
8 -3 -10 -2.7 3.4
8 -3 -10 -0.6 5.9
8 -3 -10 8.9 6.7
8 -3 10 4 5.7
8 -3 10 0.5 5.4
-8 -3 -10 -1.3 5.8
8 4 10 398.26 40.5
8 -4 -10 435.86 35.4
-8 4 -10 418.46 40
8 -4 -10 443.36 42.1
8 -4 -10 472.15 41.2
8 -4 10 464.45 35.8
-8 -4 -10 386.26 39.7
8 -4 10 440.76 36.1
8 -5 -10 155.08 28.7
8 -5 -10 181.58 27.3
8 -5 -10 184.78 26.5
8 5 10 91.49 21.6
-8 5 -10 162.38 27.5
-8 -5 -10 145.49 28.2
8 -5 10 168.48 24.4
8 -6 -10 232.58 35.1
-8 6 -10 254.17 36.8
8 -6 -10 268.07 34
8 6 10 119.79 24.5
8 -6 -10 204.58 33.4
-8 -6 -10 278.17 39.7
-8 6 10 201.68 29.6
8 -6 10 233.98 21.5
8 -6 10 194.48 26.6
8 6 -10 290.57 39.5
8 -7 -10 0.9 7.1
8 -7 -10 6.4 8.3
8 7 10 3.1 9.4
-8 7 -10 -0.3 5.8
8 -7 -10 23.4 11
8 -7 10 4.4 4.1
-8 7 10 5.9 9.1
8 7 -10 11.6 11.7
-8 -7 -10 4.1 6.9
-8 8 -10 16.4 10.3
8 8 10 2.6 8.9
8 -8 -10 40.2 13.8
8 -8 -10 17.4 12.2
8 -8 -10 30.8 13.1
-8 -8 -10 21.5 10.6
-8 8 10 14.6 11.9
8 8 -10 13.9 7.4
8 8 -10 21.1 14.3
8 -8 10 7.3 7.8
8 -9 -10 24.8 10.3
8 -9 -10 29.2 13
-8 9 -10 27.1 13.1
8 9 10 19.8 17.2
8 -9 10 3.2 7.2
-8 -9 -10 17.3 10
8 9 -10 35 10.6
-8 9 10 28.4 17
-8 10 -10 -1.1 7
8 -10 -10 0.7 6.2
-8 10 10 -2.4 13.3
8 10 -10 6.2 8
8 10 -10 0.6 12
8 -10 10 -6.5 5.9
-8 11 -10 -0.9 8
8 -11 10 -5.1 6.7
8 11 -10 -3.3 7.2
9 0 -10 142.59 30.3
9 0 -10 139.09 26.5
-9 0 -10 107.59 22.8
9 0 -10 160.68 20.3
9 -1 -10 153.48 21.2
9 -1 -10 97.89 19.2
-9 1 -10 182.58 28.5
9 1 10 91.29 22.4
9 1 -10 137.69 18.2
9 1 -10 149.49 30.4
-9 -1 -10 109.09 23.2
9 1 -10 167.48 29.6
9 -1 10 130.49 23.4
9 -2 -10 -2.4 4.3
9 -2 -10 -2.2 6.2
9 -2 -10 2.6 5.5
9 2 10 24.3 13.3
-9 2 -10 -4.2 4.1
-9 -2 -10 1.9 6.1
9 -2 10 6.4 6.8
9 2 -10 -1.8 5.4
9 2 -10 4.2 4.7
9 -3 -10 19 15.1
9 -3 -10 45.4 12.1
9 -3 -10 42.3 15.5
9 3 10 1.4 6.5
-9 3 -10 26.8 13.8
9 -3 10 13.3 8.7
-9 -3 -10 16.5 12
9 3 -10 48.7 21.1
9 -3 10 38.7 13.3
9 3 -10 28.9 8.3
9 -4 -10 156.88 24.6
9 4 10 182.88 34.7
-9 4 -10 102.69 23
9 -4 10 98.39 20.2
-9 -4 -10 122.79 40.9
9 4 -10 109.99 25.4
9 -4 10 130.19 25.2
9 4 -10 118.99 16.1
9 -5 -10 1.6 6.4
9 5 10 6.1 9.2
-9 5 -10 -4.4 3.6
9 -5 -10 8 7.8
-9 -5 -10 -2.8 5.8
9 -5 10 1.7 5
9 5 -10 -2.2 6.4
9 -6 -10 -0.9 6
-9 6 -10 -5.7 3.9
9 -6 -10 2.5 6.7
9 -6 -10 -0.6 6.8
9 6 10 6.7 10.5
9 -6 10 -0.5 4.4
9 -6 10 -4.1 4.6
9 6 -10 -3.4 7.9
-9 -6 -10 -0.3 6.6
9 7 10 10 11.9
9 -7 -10 16.2 11
-9 7 -10 6.9 9
9 -7 -10 22.8 10.8
-9 -7 -10 25.5 11.5
9 7 -10 12.7 12.3
9 -7 10 3.9 7.5
9 -7 10 15.9 7
-9 8 -10 18.6 12.2
9 -8 -10 19.8 13.5
9 8 10 10.2 14.6
9 -8 -10 7 10.5
9 -8 -10 16.9 10.8
9 -8 10 18.9 9.7
-9 -8 -10 7.9 8.8
-9 8 10 8.4 12.3
9 8 -10 11.3 13.6
-9 9 -10 5.6 8.9
9 -9 -10 -2 7.9
9 -9 -10 -0.7 6.4
9 9 -10 10.1 14.8
-9 9 10 6.7 13
9 -9 10 4.7 7.5
-9 -9 -10 9.7 8.5
9 9 -10 9.8 9.1
9 -10 -10 4.3 7.6
-9 10 -10 29.5 15.6
9 -10 10 28.7 13.6
-9 -10 -10 14.9 9.1
-9 11 -10 21.4 13.2
9 -11 10 20.5 15.6
-10 0 -10 159.38 31.8
10 0 -10 206.18 30.5
10 0 -10 196.18 24.2
10 0 -10 175.28 31.5
10 1 10 5.4 9.9
10 -1 -10 -1.4 4.7
-10 1 -10 8 9
10 -1 -10 -4.3 3.7
10 1 -10 1.2 4.6
-10 -1 -10 3.5 8.6
10 1 -10 -0.7 6.7
-10 2 -10 -0.4 6.6
10 -2 -10 24.6 12.9
10 -2 -10 19.5 9.6
10 -2 -10 11.7 11.3
10 2 10 15.4 10.2
-10 -2 -10 12.1 8.4
10 -2 10 7.5 7.9
10 2 -10 17.2 7.8
10 2 -10 1.2 8.9
10 -3 -10 47.9 16.8
10 -3 -10 58.79 16.3
10 -3 -10 69.89 16.3
-10 3 -10 84.59 21.2
10 3 10 71.69 23.2
10 -3 10 71.99 17.5
10 3 -10 80.99 14.4
10 -3 10 59.19 20.5
10 3 -10 92.89 22.3
-10 -3 -10 59.69 20
10 4 10 -1.5 7
10 -4 -10 3.1 7.3
10 -4 -10 1.4 8.8
10 -4 -10 -0.3 5
-10 4 -10 2 6.5
10 -4 10 13.3 9.5
10 4 -10 -3.2 7.9
10 4 -10 3.9 5.3
-10 -4 -10 17.6 11.8
10 -4 10 -0.6 6.1
10 5 10 302.87 62.39
10 -5 -10 203.28 32.6
-10 5 -10 209.18 37.5
10 -5 -10 207.38 30.3
10 5 -10 249.58 40.8
-10 -5 -10 194.28 33.5
10 5 -10 238.38 21.6
10 -5 10 230.18 30.7
10 -5 10 211.98 30.3
10 6 10 59.79 22.1
10 -6 -10 108.99 24.4
-10 6 -10 83.69 22.1
10 -6 -10 78.59 20.2
10 6 -10 61.29 21.1
10 -6 10 123.29 24.7
10 -6 10 73.19 24.2
-10 -6 -10 78.29 20.4
10 -7 -10 4.5 7.6
10 7 10 0.8 14
10 -7 -10 5.7 8.6
-10 7 -10 2.7 7.8
10 7 -10 0.4 10.9
10 -7 10 1.5 8.2
10 -7 10 0.1 4.7
-10 -7 -10 -3 5.5
-10 8 -10 -1 6.7
10 -8 -10 -7.3 4.8
10 -8 -10 1.6 7.9
10 -8 10 -0.3 7.1
10 8 -10 -0.6 14.3
-10 -8 -10 -4.1 5
10 -9 -10 17.3 11.1
-10 9 -10 7.7 10.7
10 -9 -10 27.2 16.4
10 -9 10 46.5 16.6
-10 -9 -10 30.7 13.4
10 -10 -10 2.5 7.9
-10 10 -10 -3 8.6
-10 -10 -10 -1.6 5.5
10 -10 10 -4.9 7.2
11 0 -10 43 15.7
11 0 -10 22.3 9.1
11 0 -10 36.3 20
-11 0 -10 58.19 17.4
-11 1 -10 44.4 16.6
11 -1 -10 19.9 12.2
11 1 10 36.9 16.9
11 -1 -10 16.2 14.8
11 -1 -10 21.4 10.3
11 -1 10 17.9 13.8
11 1 -10 17.1 15.9
11 1 -10 9.8 7.3
-11 -1 -10 3.3 8.3
-11 2 -10 26.1 12.2
11 -2 -10 17.5 12.9
11 -2 -10 34.9 11.5
11 2 10 36 15.3
11 -2 -10 44.1 16.3
11 2 -10 37.8 19.3
11 -2 10 7.2 10.9
11 2 -10 26.6 9.7
-11 -2 -10 32.8 16.4
11 -3 -10 20.3 13.7
-11 3 -10 10.5 12.6
11 -3 -10 46.1 13.7
11 -3 -10 9.4 9.1
11 3 10 43.5 19.5
-11 -3 -10 17.2 13.4
11 -3 10 15.5 10.2
11 3 -10 18.5 8.8
11 -4 -10 18.4 15.9
11 -4 -10 17 11.1
11 -4 -10 16.6 11.1
11 4 10 5.7 10.5
-11 -4 -10 27.2 13.6
11 -4 10 16.9 11.8
11 4 -10 17.9 9.1
11 4 -10 9.5 12.3
11 -5 -10 40.2 13.8
11 5 10 10.1 12.8
-11 5 -10 5.7 11.9
11 -5 -10 23.1 12.4
11 5 -10 16 8.5
-11 -5 -10 18.1 11.4
11 -5 10 18.4 11.6
11 5 -10 11.2 14.9
11 -5 10 21.7 12.1
-11 6 -10 34 23.2
11 -6 -10 -2.1 5.1
11 -6 -10 5.2 9.1
11 -6 -10 7 13.6
11 -6 10 8.8 9.5
11 -6 10 8.6 9.1
11 6 -10 11.2 17.1
-11 -6 -10 2.3 6.8
11 -7 -10 12.2 11
11 -7 -10 15.8 12
-11 7 -10 4.7 11.6
11 -7 -10 -3.7 9.9
11 -7 10 1.2 8.2
11 -7 10 -0.8 5.3
11 7 -10 4.2 15
-11 -7 -10 -3.4 5.8
-11 8 -10 147.09 30.8
11 -8 -10 235.38 38
11 -8 -10 206.28 32.2
-11 -8 -10 174.78 30.8
11 -8 10 150.88 28.6
11 -9 -10 47.9 18.7
11 -9 -10 31.3 14.8
-11 9 -10 61.49 22.8
11 -9 10 38.7 16.2
-11 -9 -10 44.6 16
12 0 -10 58.59 17.2
12 0 10 39.5 16.7
-12 0 -10 91.29 26.1
12 0 -10 57.59 19.6
12 0 -10 35.7 22.5
12 -1 -10 21.1 13.8
-12 1 -10 8.7 10.7
12 1 10 -0.7 8.9
12 -1 -10 5.8 15.7
12 -1 -10 10 8.9
12 1 -10 1.9 6
12 1 -10 1.6 10.8
12 -1 10 10.6 11.9
-12 -1 -10 8.6 9.4
12 -2 -10 14.9 10.2
12 -2 -10 45.4 15.9
-12 2 -10 59.69 21
12 -2 -10 34.7 18.9
12 -2 10 33.5 17.2
12 2 -10 33.7 11.6
12 2 -10 36.8 21.7
12 -2 10 78.89 20.1
-12 -2 -10 46.5 19.1
12 -3 -10 91.69 19.7
12 -3 -10 73.79 23.7
12 3 10 100.69 29.9
12 -3 -10 83.89 21.8
-12 3 -10 73.39 21.4
12 -3 10 64.99 18.8
-12 -3 -10 133.99 32
12 3 -10 72.19 24.1
12 3 -10 120.09 20.3
12 -4 -10 44.3 16.7
12 -4 -10 72.19 19
-12 4 -10 61.69 21.2
12 -4 -10 41.7 19.6
12 4 10 49.7 21.4
12 4 -10 40.2 12.2
-12 -4 -10 71.39 23
12 -4 10 67.19 18.1
12 -5 -10 20.9 17
12 5 10 35.7 21.3
-12 5 -10 43.2 19.3
12 -5 -10 110.09 23.5
12 -5 -10 34.5 14.3
-12 -5 -10 22 13.3
12 5 -10 39.7 12.1
12 -5 10 44.1 15.3
12 -5 10 39.3 20
12 5 -10 29.3 21.9
12 -6 -10 -0.6 12
-12 6 -10 11.7 11.3
12 -6 -10 11.2 11.4
12 -6 -10 12.4 11.4
12 6 -10 6 7.8
12 -6 10 14.2 12.8
-12 -6 -10 -0.2 8
12 -7 -10 6.5 10.2
-12 7 -10 15.8 13.4
12 -7 -10 4.2 9
-12 -7 -10 1.8 8.1
12 -8 -10 4.1 10.7
12 -8 -10 -4.5 8.5
-12 8 -10 -2.8 7.8
-12 -8 -10 -0.8 7.1
12 -8 10 12 12.1
13 0 -10 43.7 14.3
13 0 -10 75.29 30.8
-13 0 -10 34 16.4
13 -1 -10 72.39 23.3
13 -1 -10 85.69 19.2
13 -1 -10 108.99 26
-13 1 -10 49.5 20.1
13 1 10 78.89 27
13 -1 10 88.59 25.3
-13 -1 -10 115.09 28.9
13 1 -10 96.59 20
13 2 10 14.9 16.7
13 -2 -10 68.09 27.1
13 -2 -10 73.79 21
-13 2 -10 30.1 14.8
13 -2 -10 55.39 16.7
13 -2 10 37.4 14.9
-13 -2 -10 50.19 18.8
13 2 -10 43.6 26.4
13 -2 10 44.6 21.8
13 2 -10 54.39 15.2
-13 3 -10 0 8.4
13 -3 -10 5.9 8.1
13 -3 -10 3.7 7.4
13 3 10 -1.7 12.9
13 -3 -10 -1.2 14.3
13 -3 10 -1.2 8.3
13 -3 10 5.1 12.8
-13 -3 -10 -2.3 7.1
13 3 -10 8.4 8.3
13 -4 -10 1.9 8.3
-13 4 -10 1.1 8.4
13 -4 -10 -3.9 13.8
13 -4 -10 1.5 6.6
13 -4 10 2 9.2
-13 -4 -10 -4.9 5.6
13 -4 10 2.9 11.5
13 4 -10 -1 6.4
13 -5 -10 14.5 11.2
13 -5 -10 4.1 7.3
-13 5 -10 2.5 9
13 5 -10 11.5 9.2
-13 -5 -10 2.9 9.5
13 -5 10 -1.8 9.5
13 -6 -10 44.8 17.2
13 -6 -10 31.3 18.2
-13 6 -10 30.7 18.2
13 6 -10 14.3 9.7
-13 -6 -10 47.1 19.8
13 -6 10 2 9.2
-13 7 -10 18.6 15
13 -7 -10 14.8 12.9
13 -7 -10 3.4 10.4
13 7 -10 13.6 10.1
13 -7 10 -3.3 8.9
-13 -7 -10 0.5 10.1
14 0 10 19.9 18.5
-14 0 -10 52.49 22.7
14 0 -10 9.5 9.2
14 0 -10 35.4 15.8
-14 1 -10 1.2 8.2
14 -1 -10 11.1 9.7
14 -1 -10 -4.7 6.1
14 1 10 -0.3 16.6
14 1 -10 3.9 7.8
-14 -1 -10 20.3 14.1
14 -1 10 -2 14
14 -2 -10 33.4 14.6
-14 2 -10 38.2 22.2
14 -2 -10 45.6 16.3
14 -2 -10 18.9 26.5
14 2 -10 27.8 13.5
14 -2 10 31.2 15.9
-14 -2 -10 5.4 11.2
14 -3 -10 -5.3 6.4
-14 3 -10 7.1 11.9
14 -3 -10 14.3 24.1
14 -3 10 28 14.3
14 3 -10 -0.3 6.8
14 -4 -10 162.68 34.6
-14 4 -10 192.08 42.7
-14 -4 -10 162.58 33.4
14 -4 10 172.08 33.7
14 4 -10 106.49 21.7
14 -5 -10 33.7 16.6
-14 5 -10 59.79 24
14 -5 -10 40.7 16.7
-14 -5 -10 62.69 23.4
14 -5 10 40.7 16.9
14 5 -10 19.1 12.1
-15 0 -10 2.6 10.7
15 0 -10 6 8.5
15 0 -10 -0.4 8.3
15 -1 -10 -1.7 8.4
-15 1 -10 5.1 11
15 -1 -10 -4.8 7.2
15 -1 10 -3.1 7.4
-15 -1 -10 3.5 11.6
15 1 -10 2.4 9.1
-15 2 -10 -3.7 8.4
15 -2 -10 5.4 11.5
15 -2 -10 4.3 16.8
15 2 -10 -3.1 7.5
15 -2 10 -5.2 8.4
-15 -2 -10 2.2 11.5
15 -3 -10 7 11.2
15 -3 -10 -3.4 8.3
-15 3 -10 0.7 11
15 3 -10 -4.4 7.4
15 -3 10 6.6 11.7
-15 -3 -10 -1.6 8.8
0 0 -11 3.1 5
0 0 11 -2.2 1.5
0 0 11 -1.4 3
0 -1 11 0.2 1.4
0 -1 -11 0.4 4.9
0 1 -11 0.1 4.3
0 -1 11 -2.2 2.1
0 1 11 -2.5 2.3
0 1 11 0.8 2.6
0 -2 11 123.59 19
0 2 11 145.29 23.2
0 -2 -11 88.99 16
0 2 11 131.19 15.6
0 3 11 -2.7 2.6
0 3 -11 0.9 4.8
0 -3 -11 -0.9 4
0 3 11 0.9 4.1
0 4 -11 583.44 40.3
0 4 11 530.35 42.1
0 4 11 558.14 37.2
0 -4 -11 633.74 44.5
0 5 11 -3.8 4.2
0 5 -11 -1.9 3.1
0 -5 -11 -4.3 2.9
0 -6 -11 582.44 42.8
0 6 11 490.35 41.6
0 6 11 566.24 41
0 6 -11 566.34 39
0 7 11 1.9 5.4
0 7 -11 1.5 4.4
0 -7 -11 0.4 4.3
0 8 -11 -0.4 4
0 8 11 3 7.8
0 8 11 2.3 6.9
0 -8 -11 5 6.5
0 9 11 -1.4 7.6
0 9 -11 7.7 5.6
0 9 11 1.2 7.4
0 -9 -11 -3.8 3.4
0 10 -11 135.99 20.4
0 -10 -11 127.99 18
0 10 11 145.39 29.3
0 10 11 101.39 21.9
0 11 -11 -4.6 4
0 11 11 1.8 11.4
0 11 11 -1.1 17.4
0 12 11 1 16
0 12 11 8.2 15.7
1 0 -11 -3.9 2.2
-1 0 11 1.1 4.4
-1 0 11 -0.4 1.7
1 0 11 0.1 4
-1 0 -11 6.6 5.6
-1 -1 11 140.99 21.1
1 1 11 162.28 23.6
1 -1 -11 156.98 24.8
-1 1 -11 164.98 25.4
-1 1 11 112.19 17.2
1 1 -11 166.28 24.4
-1 1 11 140.09 12.2
1 -1 11 179.68 23.3
-1 -1 -11 114.39 20.1
1 2 11 48.6 13.6
-1 2 -11 33.6 14.1
1 -2 -11 34.2 9.7
1 2 -11 37.7 15.9
-1 2 11 27.7 9.4
1 -2 11 42.8 5.3
-1 2 11 58.99 9.6
-1 -2 -11 56.69 15.6
1 -3 -11 5.2 5.4
1 3 11 6.1 5.9
-1 3 -11 20.7 7.9
1 -3 11 12.5 2.7
1 3 -11 13.7 7.4
1 -3 11 6.5 5.1
-1 3 11 17.3 6.5
-1 3 11 24.2 9.1
-1 -3 -11 11.8 7
1 4 11 7.8 8
1 4 11 -2 3.7
-1 4 -11 -0.3 3.6
1 -4 -11 -3.7 2.1
-1 -4 -11 5.5 6.7
-1 4 11 5 7
1 -4 11 -0.2 1.5
-1 4 11 2.3 4.3
1 4 -11 10.8 6.9
1 -5 -11 529.45 40.9
-1 5 -11 491.45 36.8
1 5 11 550.54 38.4
1 5 -11 535.55 37.2
-1 5 11 488.15 35.9
-1 -5 -11 482.15 39.6
-1 6 -11 36.6 11.3
1 6 11 38 12
1 -6 -11 30.4 11
1 6 11 17 9.1
1 6 -11 27.4 8.6
-1 6 11 32.9 12.3
-1 6 11 19.1 9
-1 7 -11 -0.7 3.9
1 7 11 4.6 6.9
1 -7 -11 29.4 11
-1 7 11 5.6 7.2
1 7 -11 -2.4 2.6
-1 -7 -11 -1.1 3.7
1 -8 -11 18.4 10.7
-1 8 -11 29.6 10.2
1 8 11 23.1 12.9
1 8 -11 28.8 9.9
-1 -8 -11 44.5 13.6
-1 8 11 17 10.9
-1 9 -11 1.8 4.9
1 9 11 -0.6 5.6
1 -9 -11 0.4 5.1
1 9 11 7.7 10.4
-1 -9 -11 -2.7 3.7
1 9 -11 1.1 5
-1 9 11 0.4 7.3
-1 9 11 -3.9 6
1 10 11 -4.7 8.1
1 10 11 1.8 9.1
1 -10 -11 2.1 4.7
-1 10 -11 0.6 4.8
1 -10 -11 -0.6 4.2
1 10 -11 4.6 6
-1 -10 -11 -4.4 3.4
-1 10 11 -4.6 7.7
-1 10 11 -3 7.9
1 11 11 -2.9 9.9
-1 11 -11 1.8 5.2
-1 11 11 0.9 10.9
1 11 -11 1.4 5.4
1 11 -11 -2.3 4.4
-1 12 -11 30.4 10
1 12 11 49 30.9
1 12 11 39.2 23.2
-1 12 11 15.5 21.3
-1 12 11 63.29 29.4
1 12 -11 49.8 16.5
-2 0 11 1.2 2
2 0 -11 2.3 4.9
2 0 11 3.8 4.2
-2 0 -11 -3.1 3.2
-2 1 -11 116.09 20.9
2 -1 -11 104.19 17.1
-2 1 11 127.39 11.1
2 -1 11 103.49 16.1
2 1 -11 112.19 20.1
-2 -1 -11 114.99 20.3
-2 1 11 71.69 14.8
2 -2 -11 0 3.7
-2 2 -11 2.7 4.6
2 2 11 0.4 4.9
2 2 -11 7.3 6
-2 2 11 0 3.1
-2 2 11 -3.4 2.3
-2 -2 -11 0.4 2.8
2 -2 11 -4.6 1.9
2 -3 -11 497.15 38.5
2 3 11 413.96 35
-2 3 -11 447.66 40.8
-2 3 11 425.96 35.3
-2 3 11 470.75 30.2
2 -3 11 419.26 31.1
2 3 -11 411.96 34.4
2 -3 11 431.56 23.6
-2 4 -11 40.3 11.8
2 -4 -11 42.9 13.7
2 -4 11 39.2 6.6
-2 4 11 43.8 11
-2 -4 -11 48.3 13.7
2 4 -11 24.9 10
-2 4 11 49.6 19.9
2 -4 11 37.4 9.7
2 -5 -11 445.96 37.2
-2 5 -11 424.86 34
-2 5 11 473.05 34.4
2 5 -11 457.35 34.1
-2 -5 -11 408.46 36.4
2 -5 11 419.46 24.7
2 6 11 40.4 12.7
2 6 11 48.6 13.8
2 -6 -11 68.99 16.5
-2 6 -11 59.69 13.9
-2 -6 -11 62.99 16.5
-2 6 11 48.1 14.2
2 6 -11 53.09 12.6
-2 6 11 57.89 14.8
2 -6 11 49.9 9
2 -7 -11 0.7 4.5
-2 7 -11 1 3.9
2 7 11 2.4 6.1
2 7 11 1.1 5.7
-2 7 11 11.6 9.2
2 7 -11 7.3 5.5
-2 -7 -11 1.2 4.9
2 8 11 72.69 19.3
2 -8 -11 26.3 10.1
-2 8 -11 56.19 13.6
2 8 11 32.8 15.8
-2 8 11 24.1 13.6
-2 8 11 44.7 15
-2 -8 -11 59.39 15.4
2 8 -11 64.09 13.7
2 -9 -11 1.2 5
2 9 11 -1.6 7.7
2 9 11 1.8 6.6
-2 9 -11 3.7 5.3
2 9 -11 7.2 4.1
-2 -9 -11 2 5.7
2 9 -11 4.1 5.2
-2 9 11 0.4 6.4
-2 9 11 0.4 8.5
2 -10 -11 24.1 8.4
2 10 11 20.7 14.5
-2 10 -11 64.09 14.7
2 10 11 38.6 19.7
2 -10 -11 32.6 9.9
-2 10 11 31.6 15.5
2 10 -11 40.9 11.3
2 10 -11 48.7 9.8
-2 -10 -11 33.9 10.1
-2 10 11 57.09 28.7
-2 11 -11 131.59 20.3
2 11 11 128.99 29
2 11 11 104.99 28
2 11 -11 117.19 19.2
2 11 -11 135.79 18.3
-2 11 11 143.39 29.2
-2 12 -11 33.8 11.2
2 12 -11 40.5 16.5
-3 0 -11 -1.1 3.3
3 0 -11 8 6.6
3 0 11 2.6 4.3
3 1 11 94.49 19.8
3 -1 -11 86.89 18.7
-3 1 -11 62.49 13.9
-3 -1 -11 94.79 20.1
3 1 -11 111.89 20.6
3 -1 11 85.89 16.7
-3 1 11 79.49 10.6
3 2 11 282.37 27.7
-3 2 -11 270.17 33.6
3 -2 -11 279.07 27.8
-3 -2 -11 234.08 32.5
3 -2 11 292.97 25.6
-3 2 11 248.98 19.7
3 2 -11 249.08 31.4
3 3 11 -1.6 3.5
3 -3 -11 7.9 6.2
-3 3 -11 -2 4.1
3 -3 11 -0.4 3.5
-3 -3 -11 -3.6 3.4
3 -3 11 -1.2 2.3
-3 3 11 2.5 3.9
-3 3 11 6 6.1
3 3 -11 4.5 5.6
3 4 11 74.99 25.5
-3 4 -11 46.2 15.4
3 -4 -11 75.99 18.4
-3 -4 -11 83.29 19.1
-3 4 11 62.59 13
3 4 -11 76.19 15.2
3 -4 11 66.69 10.1
3 -4 11 69.09 12.8
-3 4 11 82.19 19.5
-3 5 -11 65.29 15.2
3 -5 -11 66.19 16.1
3 5 -11 83.09 16
-3 5 11 115.99 19.2
3 -5 11 83.39 11.9
3 -5 11 98.29 14.1
-3 -5 -11 75.49 17.9
-3 6 -11 1220.48 70.19
3 -6 -11 1196.98 72.79
-3 6 11 1295.67 71.59
3 6 -11 1270.77 69.59
3 -6 11 1098.69 75.29
-3 -6 -11 1435.06 77.19
3 -7 -11 46.5 12.6
-3 7 -11 48.4 13.6
3 7 11 45 13.8
-3 -7 -11 84.09 19.4
3 7 -11 47.1 12.3
-3 7 11 21.4 11.8
3 -7 11 53.29 10.8
3 8 11 176.38 28.8
3 8 11 193.38 29.7
3 -8 -11 190.58 27.1
-3 8 -11 194.18 26
-3 8 11 227.68 31.8
3 8 -11 185.78 24.3
-3 8 11 179.08 27.4
3 8 -11 172.38 12.4
-3 -8 -11 195.18 26.7
3 9 11 0.4 7.9
-3 9 -11 -0.7 3.8
3 -9 -11 0.2 5.2
3 -9 -11 3.1 5.9
3 9 -11 1.5 3.3
-3 9 11 7.2 9.6
3 9 -11 -2 3.3
-3 9 11 8.5 10.3
-3 -9 -11 1.4 4.3
3 -10 -11 0 4.5
3 -10 -11 0.6 4.9
3 10 11 -3.6 9.4
-3 10 -11 -2.3 4.4
3 10 11 3.6 11.1
-3 -10 -11 0 4.3
3 10 -11 0 4.4
3 10 -11 -1.5 3.3
-3 10 11 -4.8 8.2
-3 11 -11 4.5 6.8
3 11 11 -1.2 11.7
3 11 11 4 13.8
-3 11 11 7.4 13.5
3 11 -11 -0.3 5.3
3 11 -11 1.1 4.8
3 12 11 2.7 16.1
-3 12 -11 24 13.2
-3 12 11 3.1 18
4 0 11 3.7 4.9
4 0 -11 3.7 6.3
-4 0 -11 -2.2 3.3
-4 1 -11 384.56 34.3
4 1 11 316.97 30.5
4 -1 -11 377.26 33
-4 1 11 325.67 21.5
4 -1 11 325.57 29.6
4 1 -11 383.16 33.1
-4 -1 -11 340.47 32.9
-4 2 -11 -0.1 4.1
4 -2 -11 5.1 6.6
4 2 11 2.1 5.7
4 -2 11 -1 2.8
4 2 -11 3.7 5.2
-4 2 11 -0.8 2.9
-4 -2 -11 -1.9 3.4
-4 3 -11 -1.3 4.1
4 -3 -11 -3.9 3
4 3 11 -0.6 4.8
-4 -3 -11 0 5.2
4 -3 11 0.2 3.7
4 3 -11 4.2 5.2
4 -4 -11 6.4 7.2
-4 4 -11 6.7 7.5
-4 4 11 6.9 6.1
4 4 -11 3.5 5.6
4 -4 11 -0.5 3.4
4 -4 11 5 4.2
-4 -4 -11 8.4 7.7
-4 5 -11 39 15.2
4 -5 -11 39.5 12.8
-4 -5 -11 43.2 14.1
-4 5 11 47.4 12.1
4 -5 11 33.3 9.3
4 -5 11 51.29 10.2
4 -6 -11 62.59 15.9
-4 6 -11 34.2 12
4 -6 11 65.69 11.8
-4 6 11 56.69 13.8
-4 -6 -11 58.59 15.2
4 6 -11 56.19 13.1
4 -7 -11 12.1 8.4
-4 7 -11 14.5 7.5
4 7 11 13.2 14.1
-4 7 11 -5.1 4.2
-4 -7 -11 14.1 8.8
4 -7 11 8.8 6.4
4 7 -11 27.3 9.8
4 8 11 -1.3 5.5
4 -8 -11 -2.7 4.6
-4 8 -11 1.5 5.5
4 -8 -11 5.2 6.6
4 -8 11 -1.9 3.5
4 8 -11 2.7 2.9
4 8 -11 2.4 4.6
-4 -8 -11 0.6 5.3
-4 8 11 0.5 7.1
4 9 11 3.1 8.3
4 9 11 0.6 7.4
4 -9 -11 -1.2 4.1
4 -9 -11 -3.5 4.3
-4 9 -11 9.3 7.7
4 9 -11 4.4 3.9
4 -9 11 -0.3 4.8
4 9 -11 9.3 6.7
-4 -9 -11 2.2 5.9
4 10 11 3.9 10.1
-4 10 -11 -1.4 5
4 -10 -11 3.3 5.7
4 10 11 -5.1 9.3
4 -10 -11 1.7 5.3
-4 10 11 -3 8.2
4 10 -11 0.1 4.7
-4 -10 -11 2.3 5.1
4 10 -11 -1.2 3.9
-4 11 -11 33.2 12.3
4 11 11 4.5 13.6
4 11 -11 55.49 12
-4 11 11 25.4 17.5
4 11 -11 34 11.2
-4 12 11 -0.5 17
5 0 -11 -1.7 2.1
5 0 11 -3.1 2.3
-5 0 -11 5.6 7.4
5 0 -11 1.4 4.4
5 1 11 369.26 33.6
5 -1 -11 372.06 24.4
-5 1 -11 374.56 35
5 -1 -11 329.27 32.2
5 1 -11 324.17 31.6
5 -1 11 332.17 31
5 1 -11 379.36 20.3
-5 -1 -11 357.36 34.9
5 -2 -11 106.59 22
5 -2 -11 63.79 11.6
-5 2 -11 83.19 19.7
-5 2 11 65.29 11.6
5 -2 11 92.39 19.2
5 2 -11 88.99 19.1
-5 -2 -11 75.09 18.6
5 -3 -11 79.29 16.2
5 3 11 87.69 21.2
-5 3 -11 54.89 15.7
-5 -3 -11 66.69 16.3
-5 3 11 57.69 12.2
5 -3 11 64.79 14.5
5 -3 11 64.69 11.6
5 3 -11 37.3 11.1
5 -4 -11 25.1 10.7
-5 4 -11 4.7 6.7
5 -4 11 17.7 7.4
-5 4 11 8.4 6.3
-5 -4 -11 5.9 6.7
5 4 -11 5.3 5.5
5 -4 11 17.1 6.7
-5 5 -11 -1.5 3.5
5 -5 -11 4.9 6.2
-5 5 11 -2.5 4
5 -5 11 -0.8 3.1
5 -5 11 -2.8 2.8
-5 -5 -11 3.6 7.4
5 5 -11 8.3 6.9
5 -6 -11 119.29 21.6
-5 6 -11 229.88 32.4
5 -6 11 171.78 21.5
5 6 -11 192.58 25.6
-5 -6 -11 284.57 37.1
5 -6 11 206.38 16.5
-5 7 -11 -3 4.1
5 -7 -11 1.3 5.8
5 7 11 -3.6 5.4
5 7 -11 -0.8 1.8
5 -7 11 -3.1 3.2
-5 7 11 -3.2 4.7
-5 -7 -11 -0.8 5.1
5 -8 -11 66.79 17.3
5 -8 -11 47.2 14.4
5 8 11 39.5 16.8
5 8 -11 53.29 13.6
-5 8 11 29.9 13.1
5 8 -11 47.1 7.5
-5 -8 -11 25.8 11.4
5 -8 11 51.49 12.3
5 -9 -11 -1.5 4
-5 9 -11 1.4 5.6
5 9 -11 -3.6 3.6
5 -9 11 -3.4 4.5
-5 9 11 2.6 9.7
5 9 -11 3 4.2
-5 -9 -11 5 6.7
5 -10 -11 41.3 12.1
5 10 11 7.9 11.4
-5 10 -11 57.99 16.6
5 -10 -11 47.6 12.4
5 10 -11 33.9 9.2
-5 10 11 15 14.3
5 -10 11 44.9 13.8
5 10 -11 26.9 11.2
-5 -10 -11 36.4 10.4
5 11 11 10.7 15.8
-5 11 -11 -1.6 5.8
5 11 -11 -1.1 5.6
5 11 -11 -2.2 5.3
-5 11 11 1.5 14.3
6 0 -11 -2 4.3
6 0 -11 0.2 2.7
-6 0 -11 2.4 6.3
6 0 11 4.7 6.3
-6 1 -11 477.95 42.1
6 -1 -11 504.05 41.6
6 1 11 520.15 49.1
6 -1 -11 521.95 32.3
6 1 -11 591.44 43.7
-6 -1 -11 516.85 43.9
6 -1 11 513.15 41.2
6 -2 -11 520.05 33.6
-6 2 -11 567.94 44.7
6 2 11 494.25 42.1
6 -2 -11 536.95 43.2
-6 -2 -11 472.45 42.4
6 2 -11 480.55 25.7
6 2 -11 533.05 41.7
6 -2 11 476.55 38.8
-6 3 -11 78.49 19.4
6 -3 -11 36.3 12.8
6 -3 -11 76.99 14.8
6 -3 11 99.29 15.8
6 -3 11 70.49 17.2
-6 3 11 78.79 14.2
6 3 -11 67.49 14.3
-6 -3 -11 55.99 16.4
6 -4 -11 8 8.1
6 -4 -11 8.7 6.7
-6 4 -11 13.4 9.3
6 4 11 3.3 6.8
6 4 -11 16.1 3.2
6 -4 11 25.2 8.6
-6 -4 -11 -2.7 5.3
-6 4 11 4.8 5.7
6 -4 11 7.8 10
6 4 -11 23 10.1
6 -5 -11 -0.1 4.6
-6 5 -11 -3.3 3.7
6 -5 -11 1.5 5.6
6 5 11 -0.3 5.3
6 -5 11 -1.3 3.9
6 5 -11 -3.8 2.7
6 5 -11 -1.5 1.4
6 5 -11 1 1.5
-6 5 11 -0.3 5.3
6 -5 11 -2 2.9
-6 -5 -11 -2.2 4.6
6 6 11 68.89 20.6
6 -6 -11 55.39 16.7
6 -6 -11 61.99 15.9
-6 6 -11 63.69 17.2
6 6 -11 61.69 7.1
6 -6 11 57.59 11.2
-6 -6 -11 58.39 17.8
6 6 -11 54.69 6.8
6 -6 11 59.79 13.7
6 6 -11 80.89 18.5
-6 7 -11 -0.5 6.4
6 -7 -11 -5.4 4.7
6 -7 -11 20.9 10.5
6 7 11 -3.2 5.9
-6 7 11 0.1 6.6
6 7 -11 -2.5 4
-6 -7 -11 -2.9 3.3
6 -7 11 -2.6 3.8
6 7 -11 2.6 2.9
6 -8 -11 7 8.6
6 -8 -11 5.8 7.9
6 8 11 -3.6 6.9
-6 8 -11 -4 3.9
6 -8 11 6.3 6.9
-6 8 11 5.1 8.6
6 8 -11 1.3 3.2
6 8 -11 -1.8 3.9
-6 -8 -11 8.4 8.3
-6 9 -11 14.2 9.9
6 9 11 18.4 14.5
6 -9 -11 5.2 7.5
6 -9 -11 1.1 6.3
6 9 -11 -1.8 4.4
6 9 -11 1 4.2
6 -9 11 1.4 6.1
-6 -9 -11 6.5 7.6
-6 9 11 6.8 10.9
6 -10 -11 23.9 10.6
-6 10 -11 34.6 13.9
6 -10 -11 16 7.8
-6 -10 -11 35.1 11.3
6 -10 11 46.4 14
6 10 -11 52.69 17
6 -11 -11 73.89 12.4
-6 11 -11 52.89 18.8
6 11 11 69.59 26.2
-6 11 11 24.6 18.6
6 11 -11 46.7 13.9
-7 0 -11 -0.5 4.7
7 0 -11 -1 2.8
7 0 -11 1.6 5.3
7 -1 -11 4.3 4.6
-7 1 -11 0.4 6.6
7 1 11 1.2 5.3
7 -1 -11 8.8 8.8
7 1 -11 -0.4 4.2
7 -1 11 7.6 8.5
-7 -1 -11 11.3 8.9
7 1 -11 4.5 3.9
-7 2 -11 514.25 44.3
7 -2 -11 500.35 42.5
7 -2 -11 491.95 34.1
7 2 -11 468.75 40.7
7 2 -11 514.55 28.5
-7 -2 -11 528.35 45.7
7 -2 11 469.55 39.7
7 -3 -11 6.6 6.1
7 3 11 -3.4 4.2
-7 3 -11 1.3 6.1
7 -3 -11 2.1 5.8
7 -3 11 3.9 5.6
7 -3 11 5.3 6.4
-7 -3 -11 6.1 8
7 3 -11 -0.3 5.2
7 3 -11 2 2.7
-7 4 -11 -5 3
7 4 11 -1.7 4.7
7 -4 -11 1.5 5
7 -4 -11 2.1 5.6
7 -4 11 -3.9 3.2
-7 -4 -11 1.6 6.5
7 4 -11 1.2 2.4
7 -4 11 -1.1 4
7 4 -11 10.6 7.8
-7 4 11 0.1 4.8
7 -5 -11 107.59 22.6
7 -5 -11 118.99 22
7 -5 -11 94.59 18.5
-7 5 -11 129.59 24.4
7 5 11 122.19 25.4
7 5 -11 140.49 11
-7 -5 -11 134.69 25.1
7 5 -11 117.59 23.7
7 -5 11 145.29 21.7
7 -5 11 152.98 21.9
-7 6 -11 9.5 8.7
7 6 11 -2.4 5.5
7 -6 -11 -2 7.1
7 -6 -11 -3.9 5.1
7 -6 -11 9.6 6.7
7 6 -11 -2.2 3.8
7 6 -11 -1.2 2.6
-7 -6 -11 -5.1 3
7 -6 11 2.6 5.4
7 -6 11 -1.3 3.1
-7 6 11 -3.6 4.9
7 6 -11 -0.2 2.2
7 -7 -11 89.09 21.4
-7 7 -11 106.39 22.7
7 7 11 97.09 24.5
7 -7 -11 112.99 24.3
-7 7 11 78.19 20.6
7 7 -11 116.39 12.8
7 7 -11 104.69 20.8
7 -7 11 98.99 18.4
7 -7 11 106.39 15.9
7 -8 -11 1.1 7
7 8 11 6.1 12
-7 8 -11 0.4 5.5
7 -8 -11 -3.1 4.7
7 8 -11 5.6 7.6
7 8 -11 3.2 4.3
-7 -8 -11 4 6.8
-7 8 11 -4.3 7.6
7 -8 11 5.4 7.2
7 9 11 5.3 13.2
7 -9 -11 6.4 8.9
-7 9 -11 4.1 7.1
7 -9 -11 2.3 7
7 9 -11 0.9 4.9
7 9 -11 4.3 10.7
7 9 -11 -2.4 5.1
-7 -9 -11 0.9 5.6
7 -9 11 -3.8 5.1
-7 9 11 -1 10.4
-7 10 -11 1.4 6.8
7 -10 -11 -3.5 4.5
7 10 -11 -1.6 11.3
7 10 -11 3.3 7.6
7 10 -11 3.3 5.7
-7 10 11 -3.1 11.4
7 -10 11 1.7 7.6
-7 11 -11 4.5 8.9
7 -11 -11 9.5 7.1
7 11 -11 3.9 8.9
-7 11 11 7.8 19.8
7 -11 11 9.4 10.2
8 0 -11 -1.1 4.1
8 0 11 1.2 5.3
-8 0 -11 -3.5 4.4
8 0 -11 2.7 4.1
-8 1 -11 -1.3 5.6
8 -1 -11 -3.1 3.2
8 -1 -11 0.7 3.7
8 1 -11 -4.3 3.7
8 1 -11 2.8 4
-8 -1 -11 8.1 8.7
8 2 11 -3.9 4.6
8 -2 -11 15.6 7.7
8 -2 -11 6.5 7.6
-8 2 -11 7.7 7.6
8 2 -11 7.4 6.2
-8 -2 -11 12.5 10.2
8 -2 11 14.2 10.1
8 2 -11 -2.7 3.3
8 -3 -11 106.59 22.2
-8 3 -11 138.69 28.5
8 -3 -11 105.59 17.9
8 3 11 92.19 23.8
8 -3 11 92.19 21.5
-8 -3 -11 110.59 25.7
8 3 -11 104.49 13
8 3 -11 97.89 20.1
8 -3 11 94.89 18.1
8 -4 -11 -1 4.7
-8 4 -11 -5.3 3.1
8 4 11 7.5 8.1
8 -4 -11 -2.7 4.3
8 -4 11 -2.5 4
8 4 -11 5.8 7.4
-8 -4 -11 -5.4 3.5
8 -4 11 -1.3 5.4
8 4 -11 -2 2
-8 5 -11 8.9 9.3
8 -5 -11 3.3 7.2
8 5 11 5.2 9.2
8 -5 -11 2.2 6
8 5 -11 3.7 3.7
8 -5 11 7.7 6.9
-8 -5 -11 -4 4.8
8 -5 11 1.9 5.1
-8 6 -11 84.99 22.8
8 6 11 74.39 21.3
8 -6 -11 88.89 21.9
8 -6 -11 102.69 22
8 -6 -11 111.39 22.5
8 -6 11 86.29 16
8 -6 11 108.99 19.7
-8 -6 -11 93.79 22.4
-8 6 11 89.79 19.7
8 6 -11 80.09 11.3
8 -7 -11 70.79 19.3
8 7 11 46.2 19.2
-8 7 -11 83.49 20.7
8 -7 -11 43.9 15
8 -7 11 55.59 10.7
-8 7 11 43.8 16.2
-8 -7 -11 67.49 18.8
8 7 -11 57.29 10.3
8 7 -11 79.49 23.3
8 -7 11 54.59 16.4
8 -8 -11 -3.3 6.9
-8 8 -11 3.8 7.9
8 8 11 1.5 11.8
8 -8 -11 4.4 7.3
8 8 -11 7.8 8.3
-8 8 11 10.1 12
8 8 -11 1.7 4.6
-8 -8 -11 -3.8 4.1
8 -8 11 2.1 6.4
8 -9 -11 -3.2 7.2
-8 9 -11 -2.1 6.2
8 -9 -11 5.8 7.9
8 9 -11 2.8 5.3
8 -9 11 -4 5.4
8 9 -11 13.2 10.4
-8 -9 -11 3 7.5
8 9 -11 4.2 13.1
-8 9 11 -5.2 16.9
8 -10 -11 6.3 8
-8 10 -11 3.4 8.4
-8 -10 -11 7.4 8.6
-8 10 11 10.3 16.9
8 -10 11 0.7 8
8 10 -11 11.2 10.3
-8 11 -11 11.9 11.9
8 11 -11 19.8 12.6
8 -11 11 26.1 14.2
9 0 -11 -2.5 5
9 0 -11 8.1 5.4
-9 0 -11 -5.8 4.4
9 -1 -11 30.9 12.5
9 -1 -11 45 11.8
-9 1 -11 21.8 13.3
9 -1 -11 26.9 12.9
9 1 -11 46.1 14.2
-9 -1 -11 22.7 13.4
9 -1 11 28.5 13.6
9 1 -11 23.2 15.1
9 1 -11 30.5 9.1
-9 2 -11 135.29 25.6
9 -2 -11 113.79 24.7
9 -2 -11 173.48 22.6
9 2 11 190.28 34.3
9 -2 -11 136.59 28.7
-9 -2 -11 139.59 30.8
9 2 -11 140.79 24.1
9 2 -11 138.29 17.6
9 -2 11 188.28 30.7
9 2 -11 190.38 34.2
9 3 11 6.2 8.5
9 -3 -11 4.9 11.1
-9 3 -11 5.7 8.8
9 -3 -11 0.1 4.9
9 -3 -11 12.6 10.1
9 -3 11 11.7 8.2
-9 -3 -11 18.5 11.3
9 -3 11 14.6 9.9
9 3 -11 14 11.5
9 3 -11 15.1 6.3
9 3 -11 20.5 10.1
9 -4 -11 15 10.1
-9 4 -11 26 13.3
9 -4 -11 39.2 12.7
9 -4 -11 -3 6.3
9 4 11 14.1 10.7
9 -4 11 31 12.6
-9 -4 -11 6.2 8.2
9 4 -11 21.9 6.9
9 -4 11 6.6 7.6
9 4 -11 34.4 15.8
-9 5 -11 66.79 19.4
9 -5 -11 93.89 23.1
9 -5 -11 109.29 21.1
9 5 11 47.6 16.7
9 -5 11 103.99 21.1
9 -5 11 119.09 21.6
9 5 -11 76.69 12.1
-9 -5 -11 108.19 25.2
9 5 -11 78.29 22.6
-9 6 -11 65.79 19.6
9 6 11 36 19.5
9 -6 -11 98.79 21.9
9 -6 -11 73.59 18.9
-9 -6 -11 53.59 18.4
9 6 -11 68.79 11.3
9 -6 11 33.2 13
9 6 -11 73.09 23
9 -6 11 52.29 12.9
9 7 11 46.5 19.8
-9 7 -11 34.7 15.1
9 -7 -11 52.19 16.3
9 -7 -11 66.69 24.9
9 -7 -11 74.69 21
-9 -7 -11 76.89 19.6
9 -7 11 43.6 14.5
9 -7 11 47.3 10.8
9 7 -11 50.39 21.5
9 -8 -11 37 14.7
9 -8 -11 36.8 16.9
-9 8 -11 32.3 14.1
9 8 11 17.9 17.7
9 -8 11 42.7 14.3
-9 -8 -11 27.2 12.4
9 8 -11 24.8 17.3
-9 8 11 28 15.6
9 8 -11 57.49 12.5
-9 9 -11 0.9 8.3
9 -9 -11 -4.1 5.5
-9 -9 -11 -1.9 5.5
9 -9 11 2.4 7.8
9 9 -11 0.3 16.4
-9 9 11 5.7 13.9
-9 10 -11 42.5 19
9 -10 -11 46.2 15.3
-9 -10 -11 48.9 14.7
9 -10 11 47.2 16.8
9 10 -11 50.89 16.2
-9 10 11 21.5 22.7
-10 0 -11 -3.1 5
10 0 -11 5.7 10
10 0 -11 3.1 7
10 0 11 1.2 7.1
10 0 -11 -2.5 4
10 -1 -11 13 11.2
10 -1 -11 7.8 7.6
10 -1 -11 9.9 7.2
10 -1 11 4 8.7
10 1 -11 9.8 6.8
10 1 -11 8.9 12.5
10 1 -11 12.9 11
-10 -1 -11 15.3 9.8
10 -2 -11 -1 5.2
10 -2 -11 9.2 7.8
10 -2 -11 4.9 10.6
-10 2 -11 8.5 10.5
10 2 11 1.5 9.1
-10 -2 -11 0.2 6.6
10 2 -11 -0.8 7.6
10 2 -11 1.9 4.4
10 2 -11 -2.1 4.7
10 -3 -11 45.7 14.9
-10 3 -11 48.3 16
10 -3 -11 54.89 14.2
10 3 11 44.8 15.6
10 -3 -11 62.99 20.3
10 -3 11 52.09 17.2
-10 -3 -11 79.19 23.8
10 3 -11 56.59 21
10 3 -11 51.59 10.9
10 -3 11 64.29 16.9
-10 4 -11 11.9 11.1
10 -4 -11 -0.1 5
10 4 11 -2.5 6.7
10 -4 -11 0.3 6.7
-10 -4 -11 -3.5 4.1
10 -4 11 -2.1 6.1
10 4 -11 -3.4 2.7
10 -4 11 -2.9 5.7
10 -5 -11 -7.4 4.6
-10 5 -11 1.6 6.4
10 -5 -11 2.3 6.1
10 -5 -11 2.9 9.3
10 5 11 -1.9 7.8
10 5 -11 -3.3 9.3
10 -5 11 2.9 10.2
10 5 -11 -1.9 3.5
10 -5 11 -3.8 4.4
-10 -5 -11 3.6 8.2
-10 6 -11 -0.2 6.3
10 -6 -11 5.6 9
10 -6 -11 -2.3 5.5
10 6 11 9.7 14
10 -6 -11 0.7 8.9
10 -6 11 -1.7 5.4
10 6 -11 10.2 6.3
10 6 -11 -3.2 10.8
-10 -6 -11 -4 5
10 -6 11 1.2 5.9
10 -7 -11 5.8 11.9
10 -7 -11 11.7 11.3
-10 7 -11 9.7 10.9
10 -7 -11 10.4 10.2
10 7 11 4.1 14.3
10 -7 11 37.9 14.4
10 7 -11 16.5 18.6
10 -7 11 1.3 4.8
-10 -7 -11 32.1 15.4
10 -8 -11 2.4 9.5
-10 8 -11 1.1 8.2
10 -8 -11 -1.2 6.9
10 -8 11 6.4 9.7
-10 -8 -11 -2.2 6
-10 9 -11 30 15.8
10 -9 -11 37.2 15.6
-10 -9 -11 22.6 12.9
10 -9 11 51.19 16.6
10 -10 11 65.19 20.8
11 0 11 -2.6 6.7
11 0 -11 2.4 5.4
11 0 -11 -4.8 8
11 0 -11 1.3 5.3
-11 0 -11 0.9 7.6
11 -1 -11 10.6 7.9
11 1 11 26.2 15.9
11 -1 -11 2.8 7.5
11 -1 -11 24.4 18.1
-11 1 -11 -4.5 7.5
11 1 -11 5.2 9.4
11 1 -11 12 7.7
-11 -1 -11 25.9 13
11 -1 11 17 12.3
11 -2 -11 64.79 16.3
11 -2 -11 32.1 16.9
11 -2 -11 81.09 22.5
-11 2 -11 63.69 22.2
11 2 11 57.59 20.9
-11 -2 -11 82.49 24.6
11 2 -11 52.39 20.3
11 2 -11 80.09 14.9
11 3 11 1.9 11.2
11 -3 -11 7.1 13.1
11 -3 -11 4.6 6.9
-11 3 -11 9.8 9.3
11 -3 -11 10 8.6
11 3 -11 13.3 7.9
11 -3 11 11.8 9.7
-11 -3 -11 4.1 10.4
11 3 -11 -4.1 9.5
11 -4 -11 8 9.9
-11 4 -11 -3.5 5.5
11 -4 -11 5.5 13.8
11 -4 -11 -5.3 4.8
11 4 11 1 10
11 -4 11 2.6 7.9
11 4 -11 -5.4 11.1
-11 -4 -11 3.2 8.6
11 4 -11 7.4 6
11 -4 11 9.2 11
11 -5 -11 7 12.6
11 -5 -11 24.3 13.8
11 -5 -11 -5.2 5.1
11 5 11 0.4 20.6
-11 5 -11 -6.1 6.1
11 -5 11 -1.6 6.8
11 -5 11 -4 5
11 5 -11 -3 13.7
-11 -5 -11 -5.7 5.3
11 5 -11 0.5 4.9
11 -6 -11 63.39 18.7
11 -6 -11 58.59 19.4
-11 6 -11 51.79 19.3
11 -6 -11 56.09 21.7
11 6 -11 80.99 15.9
-11 -6 -11 50.99 18.2
11 6 -11 57.69 26.5
11 -6 11 51.29 20.3
11 -6 11 52.69 17.3
11 -7 -11 5.4 9.8
11 -7 -11 7.6 9.8
-11 7 -11 1.6 10.3
11 7 -11 11.3 7.3
11 -7 11 18.7 12.7
-11 -7 -11 20.7 13.5
11 -8 -11 18.3 14.6
-11 8 -11 -0.6 8.6
11 -8 -11 6.9 10
11 -8 11 -2 7.2
-11 -8 -11 14.1 12.1
11 -9 -11 50.59 17.8
11 -9 -11 94.89 25.5
-11 9 -11 86.39 26.4
-11 -9 -11 87.69 22.5
11 -9 11 35.5 16.4
12 0 -11 6.8 13.7
-12 0 -11 -2 7.2
12 0 11 0.8 9.9
12 0 -11 -4.2 4.1
12 0 -11 -1.6 5.1
12 -1 -11 4.9 10.8
-12 1 -11 13.6 12.4
12 -1 -11 4.5 11.7
12 -1 -11 5.2 7.4
12 1 -11 6.1 7.8
-12 -1 -11 0.1 9.1
12 -1 11 7.3 10.1
12 1 -11 6 7
12 1 -11 1.3 12.1
-12 2 -11 6.9 9.2
12 -2 -11 -3.4 10
12 -2 -11 -1.8 4.5
12 2 11 4.7 11.4
12 -2 -11 3.7 7.6
12 -2 11 5.4 11.2
12 2 -11 -2.5 4.9
12 2 -11 9.8 14.3
12 -2 11 -7.8 4.5
-12 -2 -11 0.4 8.3
12 -3 -11 26.6 13.1
-12 3 -11 24.4 15.9
12 3 11 30.7 22.2
12 -3 -11 21.8 12
12 -3 11 36.8 15.7
12 -3 11 40.1 17.3
12 3 -11 57.39 33.3
12 3 -11 21.7 9.9
-12 -3 -11 35.8 16.9
12 -4 -11 3.4 13.6
12 4 11 11.5 19.1
12 -4 -11 4.9 8.8
12 -4 -11 14.3 11.5
-12 4 -11 8 10.7
-12 -4 -11 -1.1 7.4
12 4 -11 16.1 9.1
12 -4 11 8.7 9.9
12 -5 -11 -7.8 5.6
-12 5 -11 3.4 8.4
12 -5 -11 -0.7 12.8
12 -5 -11 -4.8 5.3
12 5 -11 2.4 6.3
-12 -5 -11 1.5 8.8
12 -5 11 9 10.4
12 -6 -11 -2.7 6
12 -6 -11 0.4 7.5
-12 6 -11 11 14.1
12 -6 11 -2.2 7.5
12 6 -11 -0.8 6
-12 -6 -11 4.2 10.7
-12 7 -11 149.69 32.1
12 -7 -11 111.09 25.2
12 -7 -11 193.08 33.2
12 -7 11 155.98 29.4
12 7 -11 159.38 23
-12 -7 -11 167.58 32.5
12 -8 -11 9.4 13.3
-12 8 -11 12.6 14.6
12 -8 -11 10.2 13.4
12 8 -11 11.5 9.1
12 -8 11 0.1 9.6
13 0 -11 -1.1 13.6
13 0 -11 -1.5 5.5
13 0 -11 4.6 7.8
-13 0 -11 3.8 9.6
13 0 11 -0.1 13.2
-13 1 -11 23.5 16.3
13 1 11 13.9 18.1
13 -1 -11 28.7 12.5
13 -1 -11 33.5 15.9
13 1 -11 33.2 16.6
13 1 -11 1.5 6.6
-13 -1 -11 21.7 14
13 -1 11 12.1 16.8
13 -2 -11 57.59 17.9
-13 2 -11 83.49 26.7
13 2 11 54.89 25
13 -2 -11 25.3 21.4
13 -2 -11 50.39 16.2
13 -2 11 56.79 24.5
13 2 -11 100.79 20.2
-13 -2 -11 101.09 28.7
13 -2 11 59.79 18.4
13 -3 -11 0.1 14.2
-13 3 -11 -4.2 6.4
13 -3 -11 -3.6 4.4
13 -3 -11 -6.6 6.3
13 -3 11 1.4 12.1
13 -3 11 -3.1 7.5
-13 -3 -11 -3.5 6.4
13 -4 -11 -1.9 7.6
13 -4 -11 8.8 18.6
-13 4 -11 4.1 12.5
13 -4 -11 -4.8 5.5
-13 -4 -11 -6.1 6.9
13 -5 -11 48.9 18.3
-13 5 -11 34.8 20.4
13 -5 11 22.1 12.9
-13 6 -11 21.9 17.1
13 -6 -11 19.1 14
13 -6 -11 12.5 11.5
13 -6 11 3.4 10.3
13 6 -11 25.2 13.7
-13 -6 -11 9.6 12.2
14 0 -11 6 10.6
-14 0 -11 -1.1 9
14 0 -11 7.4 9.5
14 0 11 -2.7 17.4
14 -1 -11 -2.4 6.8
-14 1 -11 -1.1 8.7
14 1 -11 3.8 7.3
14 1 -11 8.3 11.7
14 -1 11 2.3 18.6
14 -2 -11 69.89 23.1
14 -2 -11 63.89 19.3
-14 2 -11 98.99 30.3
14 -2 11 127.79 27.9
-14 -2 -11 66.59 25.5
14 2 -11 114.49 22.9
-14 3 -11 -5.3 7.1
14 -3 -11 -3.4 6.7
14 -3 -11 -2.4 6.5
14 3 -11 -3.8 6.4
-14 -3 -11 3.3 10
14 -3 11 -4.9 7.7
14 -4 -11 -1.3 6.5
-14 4 -11 -4.4 7.8
14 -4 -11 -2.5 8.4
-14 -4 -11 -3.8 8.2
14 -4 11 3.2 10.1
14 4 -11 -4.7 6.6
-14 5 -11 -3.7 9.8
14 -5 -11 16.2 14.1
14 -5 -11 3.2 10.8
14 -5 11 15.3 14.6
-14 -5 -11 0.4 10.5
14 5 -11 13.6 11
15 0 -11 -1.1 8.3
15 0 -11 -7.6 7.5
-15 0 -11 -0.9 9.8
15 -1 -11 -5 6.1
15 -1 -11 -1.3 8.3
-15 1 -11 -1.1 9.5
-15 -1 -11 9 13
15 1 -11 -1.4 7.8
15 1 -11 2.9 9.1
15 -1 11 -5.7 8.3
0 0 12 40.4 12.1
0 0 12 53.39 7.4
0 0 -12 38.8 12.5
0 -1 12 -0.7 3.5
0 -1 -12 0.5 4
0 -1 12 1.1 1.5
0 1 12 -3.6 2.7
0 1 12 -0.3 2.3
0 1 -12 -2.5 2.6
0 -2 -12 520.05 41.1
0 -2 12 481.55 35.7
0 2 12 518.35 31.2
0 2 12 504.15 39.2
0 2 -12 471.15 38
0 3 -12 0.3 4.5
0 3 12 0.4 4.7
0 3 12 -1.6 3.8
0 -3 -12 0.6 4.6
0 4 12 -0.4 3.5
0 -4 -12 4.8 6.7
0 4 12 -0.7 5.2
0 5 12 -1.5 3.9
0 -5 -12 0.5 5.1
0 5 -12 -2.2 3.5
0 -6 -12 66.49 15.5
0 6 -12 94.29 17.2
0 6 12 88.29 18
0 -7 -12 4.9 6.7
0 7 -12 1.6 4.8
0 7 12 -1.3 5.2
0 7 12 0.7 6.5
0 8 -12 107.19 19.7
0 -8 -12 154.18 25.4
0 8 12 168.38 28.5
0 8 12 131.49 25.7
0 9 12 2.9 8
0 9 -12 -1.6 4
0 -9 -12 -3.1 3.8
0 9 12 0.6 8.7
0 10 -12 8.9 7.6
0 10 12 7.9 12.3
0 10 12 -6.3 16.8
0 -10 -12 18.3 8.2
0 11 12 -3.5 11.7
0 11 -12 -4.1 4.6
0 12 12 95.39 31
-1 0 12 7.6 6
-1 0 12 11.9 3.7
-1 0 -12 12.7 7
1 0 -12 23 9.4
1 0 12 8.6 7.4
-1 -1 12 507.65 38
1 1 12 575.94 41.8
-1 1 -12 548.55 41.8
1 -1 -12 571.14 42.7
-1 1 12 521.15 29.5
1 1 -12 497.95 39.8
-1 -1 -12 572.14 42.8
1 -1 12 516.05 38.7
-1 1 12 526.25 40
1 -2 -12 14.4 8.5
1 2 12 -2.3 3
-1 2 -12 -0.2 4.3
1 2 -12 1.4 4.9
-1 -2 -12 -3.6 2.5
-1 2 12 0 2.6
-1 2 12 1.9 5
1 -2 12 0.6 1.5
1 -2 12 -1.6 3.1
1 -3 -12 5.3 6.6
-1 3 -12 18.7 8.2
1 3 12 -1.7 3.1
-1 3 12 8.6 5.7
-1 -3 -12 6.9 8.1
1 3 -12 20.3 8.4
1 -3 12 15.7 6.8
1 4 12 12.6 7.6
1 -4 -12 5.3 6.5
-1 4 -12 16 11.2
1 4 12 5.1 5.5
-1 4 12 7.3 8.9
-1 -4 -12 6.3 6.8
-1 4 12 7.5 6
1 4 -12 13.1 9.8
1 -5 -12 111.79 22.4
-1 5 -12 111.99 20.2
1 5 12 105.19 18.7
-1 5 12 110.49 17.9
1 5 -12 101.29 19.1
-1 -5 -12 60.49 15.9
-1 6 -12 16.6 8.3
1 6 12 0 6.9
1 -6 -12 20.5 10
1 6 12 11.6 8.3
-1 -6 -12 13.6 9.4
-1 6 12 30.3 11.1
1 6 -12 27.6 9.5
1 -7 -12 20.5 10.4
1 7 12 6.8 8.7
1 7 12 -0.3 5.2
-1 7 -12 35.1 11.3
-1 7 12 8.5 8.4
-1 7 12 29.3 13.8
1 7 -12 25.8 9.5
-1 -7 -12 14.8 10.2
-1 8 -12 11.6 7.8
1 8 12 6.6 7.8
1 -8 -12 37.9 12.2
1 8 12 12.4 10.3
-1 8 12 23.5 12
-1 -8 -12 33.4 11.4
-1 8 12 17.4 11.7
1 8 -12 41.6 12.4
-1 9 -12 124.99 21.7
1 -9 -12 116.69 20.2
1 9 12 76.19 19.9
-1 9 12 99.39 25.9
-1 -9 -12 141.59 23
1 9 -12 115.09 20.1
-1 9 12 102.39 24.7
1 10 12 4.2 10.3
-1 10 -12 6.8 6.6
1 10 12 2 10.3
1 -10 -12 -3.5 4.4
-1 10 12 0.6 9.5
-1 10 12 3.4 11.6
-1 -10 -12 0.7 5.3
1 10 -12 8 7.2
1 11 12 7 14.4
1 11 12 -3.6 14.3
-1 11 -12 -3.1 4.9
-1 11 12 1.6 12.8
1 11 -12 0.9 5.6
1 12 12 0.9 20.3
-1 12 12 -0.7 17
2 0 12 128.69 22.4
2 0 -12 108.39 19.9
-2 0 -12 101.09 19.2
-2 0 12 121.19 8.9
-2 1 -12 337.47 31
2 -1 -12 327.87 31
2 1 12 306.27 29.3
-2 -1 -12 222.18 28.9
2 -1 12 284.87 27.2
-2 1 12 291.57 28.3
-2 1 12 291.67 19.2
2 1 -12 278.77 27.9
-2 2 -12 90.79 18.6
2 2 12 79.69 15.4
2 -2 -12 145.09 24.9
-2 -2 -12 79.29 16.2
-2 2 12 78.69 12
2 2 -12 95.89 19.8
2 -2 12 113.09 19.2
-2 2 12 99.99 20.1
-2 3 -12 3.3 6.4
2 -3 -12 12.8 9.5
2 3 12 16.6 11.6
2 -3 12 10.9 6.7
2 -3 12 14.2 4
-2 -3 -12 15 10.3
2 3 -12 6.3 5.9
-2 3 12 17 5.7
-2 3 12 9.1 8.2
2 4 12 186.38 30.4
2 -4 -12 142.99 23.8
-2 4 -12 208.38 29.1
-2 -4 -12 145.19 24.7
2 -4 12 145.59 19.7
2 4 -12 138.39 23
-2 4 12 185.38 28.7
-2 4 12 175.58 22.1
2 -4 12 169.38 12.1
2 -5 -12 353.06 34.1
-2 -5 -12 283.87 36.6
2 5 -12 320.77 46
2 -5 12 386.76 21.6
-2 5 12 433.76 32.5
2 -6 -12 -0.3 4.5
2 6 12 2.1 4.9
-2 6 -12 5.3 6
-2 6 12 -1.3 5.1
2 6 -12 2.1 4.6
-2 -6 -12 2.1 6.9
-2 6 12 -4.5 3.5
-2 7 -12 28.7 10.3
2 7 12 -4.4 4.9
2 -7 -12 13.2 8.9
-2 7 12 12.1 9.7
2 7 -12 29.1 9.5
-2 -7 -12 14.2 9.9
2 -8 -12 28.3 10.7
-2 8 -12 64.69 15.3
2 8 12 41.9 15.6
2 8 12 13.7 9.7
2 8 -12 32.8 10.5
-2 -8 -12 38.5 12.3
-2 8 12 20 12.3
-2 8 12 33.7 13.4
2 -9 -12 6.7 6.8
-2 9 -12 -1.6 3.6
2 9 12 0.2 7.8
2 9 12 -3 7.4
-2 9 12 10.4 10.9
-2 9 12 -1.7 12.8
2 9 -12 -3 3.4
-2 -9 -12 -3.3 4.4
2 10 12 41.1 19
2 -10 -12 68.19 15.3
2 -10 -12 79.99 15.8
2 10 12 56.39 19.2
-2 10 -12 109.99 19.8
2 10 -12 83.89 18
-2 10 12 55.29 19.2
-2 10 12 64.69 22.9
-2 -10 -12 71.79 14.9
2 11 12 42.7 20.8
2 11 12 47.7 21.9
2 -11 -12 71.39 11.7
-2 11 -12 91.99 17.8
2 11 -12 129.59 21.3
-2 11 12 37.8 20.3
-2 11 12 59.59 22.4
-2 12 12 -0.9 19
3 0 -12 123.49 22.9
-3 0 -12 145.29 25.3
3 0 12 90.09 17.8
-3 1 -12 13.1 8.2
3 1 12 26 10
3 -1 -12 13.1 7.2
-3 -1 -12 11 8.4
3 1 -12 14.7 7.1
-3 1 12 24.3 6
3 -1 12 20.9 8.3
3 2 12 -1.6 4.1
3 -2 -12 -0.8 4.1
-3 2 -12 -0.8 4.1
-3 2 12 0.5 3.3
3 -2 12 -0.8 3.2
-3 -2 -12 -4.7 3.3
3 2 -12 1.6 4.5
3 3 12 22.6 11.6
3 -3 -12 24.8 8.9
-3 3 -12 6.1 7.2
3 -3 12 20.7 5.7
3 -3 12 32 10.9
-3 -3 -12 30.7 12.2
-3 3 12 17.9 7.9
3 3 -12 16.6 9.7
3 -4 -12 6.4 6.4
-3 4 -12 11.8 8.3
-3 -4 -12 7.9 7.9
3 4 -12 7 6.4
3 -4 12 3.8 3.6
-3 4 12 3.4 5.3
3 -4 12 -1.5 3
-3 5 -12 18.7 8.3
3 -5 -12 12.9 9.3
3 -5 12 23 6.1
3 5 -12 6.9 6.1
-3 5 12 24.5 9.6
3 -5 12 15.8 6.6
-3 -5 -12 17.2 9.6
3 6 12 -1.5 4.2
3 -6 -12 -4.7 3.7
-3 6 12 1.4 6.3
3 -6 12 -0.5 3.2
-3 -6 -12 -2.8 3.8
-3 6 12 -2 4.7
3 7 12 1.2 6.4
3 -7 -12 -2.6 4.4
3 7 12 5 7.5
-3 7 -12 -0.5 4.2
-3 -7 -12 -3.6 3.5
3 7 -12 7.3 7.2
-3 7 12 -2.1 5.6
-3 7 12 0.4 6.6
3 -7 12 1.4 3.8
3 8 12 111.89 24.6
3 -8 -12 91.29 19.7
3 8 12 95.69 21.7
-3 8 -12 102.99 21
-3 8 12 81.49 19.7
-3 8 12 92.99 21.1
-3 -8 -12 111.89 21.2
3 8 -12 125.69 21
3 9 12 41.1 16.1
3 -9 -12 51.39 15.3
3 -9 -12 65.49 16.6
-3 9 -12 47.2 13.5
-3 9 12 45.3 20.1
3 9 -12 49.4 13.7
-3 -9 -12 64.19 15.6
3 -10 -12 89.49 17.7
-3 10 -12 77.69 17.5
3 -10 -12 83.09 17.3
3 10 12 81.39 24.3
3 10 12 89.29 23.6
3 10 -12 77.99 16.6
-3 -10 -12 112.49 19.1
-3 10 12 87.19 23.3
3 11 12 2.2 13.9
3 -11 -12 4.1 5.1
3 11 12 10.2 18.7
-3 11 -12 -1.5 5.6
-3 -11 -12 1.8 4.6
3 11 -12 10 7.9
-3 11 12 5.6 14.4
4 0 -12 8.2 6.5
-4 0 -12 1.3 5.7
4 0 12 -0.3 4
4 -1 -12 279.67 34.8
4 1 12 138.29 21.3
-4 1 -12 143.59 22.7
4 -1 12 216.68 30.5
4 1 -12 225.08 30.4
-4 2 -12 1.4 5.1
4 -2 -12 -3.5 3
4 2 12 -1.7 3.6
4 2 -12 -0.6 4.8
4 -2 12 -2.5 3.2
-4 2 12 1.8 3.6
-4 -2 -12 -0.3 5.3
-4 3 -12 59.29 16.4
4 -3 -12 57.69 15.6
4 3 12 71.19 19.1
-4 3 12 87.29 14.2
4 -3 12 78.49 12.2
-4 -3 -12 74.59 18.7
4 3 -12 96.29 20.2
4 -3 12 69.79 14.5
-4 4 -12 43.2 13.4
4 -4 -12 48 15
4 4 -12 11.7 7.9
4 -4 12 18.4 8.2
4 -4 12 14.4 5.8
-4 4 12 10.8 6.8
-4 -4 -12 29.5 11.5
-4 5 -12 32.8 11.7
4 -5 -12 43.2 13.4
4 5 -12 31.9 11.3
-4 5 12 24.6 9.2
-4 -5 -12 37.6 11.9
4 -5 12 24.4 7.6
4 -5 12 31.8 7.9
-4 6 -12 15.9 10.1
4 -6 -12 10.1 8.8
4 6 12 -0.4 4.6
-4 6 12 8.1 9.7
4 6 -12 5 6.2
4 -6 12 7.8 5
-4 -6 -12 0.2 5.4
4 -7 -12 232.08 33
4 7 12 112.99 24.1
-4 7 -12 148.59 24
4 7 -12 152.98 24.6
-4 -7 -12 129.39 23
4 -7 12 153.08 19.2
4 -8 -12 3.6 6.2
4 8 12 7.4 10.1
4 8 -12 2.7 5.2
4 -8 12 2.8 5.3
-4 -8 -12 1.5 5.5
-4 8 12 8.9 10.5
-4 9 -12 4.5 7.3
4 -9 -12 7.4 8.5
4 9 12 21.2 14
4 -9 -12 -4.3 3.5
4 9 12 -0.3 8.6
-4 -9 -12 2.2 6.5
4 9 -12 21.2 9.4
-4 9 12 1.8 9.5
4 -10 -12 7.7 8.6
4 -10 -12 0.3 5.2
-4 10 -12 -4.6 4.6
4 10 12 -2.2 11.2
4 10 -12 2.3 6.3
4 10 -12 0.6 3.2
-4 10 12 2.2 10.2
-4 -10 -12 -3.8 3.8
-4 11 -12 59.29 17.1
4 11 12 84.29 28
4 -11 -12 50.29 11.2
4 11 -12 89.49 18.2
-4 -11 -12 110.99 15
-4 11 12 57.79 22.5
-5 0 -12 358.56 44.2
5 0 12 304.97 31.1
5 0 -12 349.07 41.2
5 -1 -12 375.46 36.2
-5 1 -12 428.76 39
-5 -1 -12 395.16 38.4
5 1 -12 453.75 38.5
5 -1 12 428.86 36.3
-5 2 -12 98.29 21.5
5 2 12 75.69 16.4
5 -2 -12 102.29 21.2
-5 -2 -12 77.79 16.7
-5 2 12 114.59 15
5 -2 12 100.29 19.6
5 2 -12 64.69 15.6
5 -3 -12 -4.2 3.2
-5 3 -12 -5 3.4
5 3 -12 2.5 5.4
5 -3 12 1.4 4
5 -3 12 -0.4 4.5
-5 -3 -12 -4.7 3.4
-5 3 12 0.5 4.2
-5 4 -12 3.9 6
5 4 12 -2.1 3.4
5 -4 -12 15.5 9.5
5 -4 12 6 5.1
5 4 -12 3.9 5.5
-5 4 12 8.2 7.1
-5 -4 -12 1.6 7
-5 5 -12 117.69 22
5 -5 -12 97.09 21.2
-5 5 12 94.29 18.6
-5 -5 -12 102.59 23.2
5 5 -12 103.39 19.3
5 -5 12 133.99 19.2
5 -5 12 117.49 16.3
5 6 12 13.6 10.5
5 -6 -12 0.8 5.3
-5 6 -12 9 8.3
5 6 -12 9.1 7.7
5 -6 12 16.5 6
-5 -6 -12 9.9 8.7
5 -6 12 13.2 6.9
5 7 12 -0.2 7
-5 7 -12 44 13.6
5 -7 -12 29.9 11.6
5 -7 12 14.7 7.4
5 7 -12 3.8 5.8
-5 -7 -12 10.6 8.7
-5 7 12 13.6 10
5 -8 -12 5.4 8
-5 8 -12 15.7 10.4
5 8 12 9.1 12.9
5 -8 12 11.1 7.4
-5 -8 -12 15.2 11.7
-5 8 12 3.4 8.1
5 8 -12 6.3 6.9
5 9 12 63.09 21.5
5 -9 -12 81.49 18.1
5 -9 -12 79.19 18.8
-5 9 -12 130.69 24
-5 9 12 114.59 26.8
5 9 -12 99.29 19.5
5 -9 12 81.59 16.8
-5 10 -12 -4 5.2
5 10 12 3.1 14.6
5 10 12 -5.9 12.1
5 -10 -12 -1.8 6
5 10 -12 1.2 3.3
-5 -10 -12 0.9 6.2
-5 11 -12 5.5 9.6
5 11 12 -4.7 15
5 -11 -12 2.7 5.8
-5 -11 -12 8.7 6.3
5 11 -12 6.5 7.9
-5 11 12 4.9 16.3
6 0 12 69.09 18.6
6 0 -12 75.79 18.8
-6 0 -12 37.2 12.8
6 0 -12 68.69 10.2
6 -1 -12 51.19 10.2
6 -1 -12 67.09 15.2
6 1 12 34.9 11.9
-6 1 -12 55.29 16.9
-6 -1 -12 44 15.6
6 -1 12 16.7 8.5
6 1 -12 26.2 10
6 1 -12 47.7 7.5
6 -2 -12 402.96 29.4
6 -2 -12 461.85 40.3
-6 2 -12 451.85 41
6 2 -12 420.06 37.9
-6 -2 -12 428.96 40.6
6 -2 12 421.46 36.5
6 2 -12 416.76 21.1
6 -3 -12 6.2 6.8
6 3 12 11.8 10.8
6 -3 -12 -0.5 4.1
-6 3 -12 -1.3 4.6
6 -3 12 7.3 5.8
-6 3 12 8.7 6.3
6 -3 12 6.3 6.4
-6 -3 -12 3.5 7.5
6 3 -12 4.4 6.1
6 4 12 22.4 13
6 -4 -12 25.6 12.1
-6 4 -12 12 9.1
-6 -4 -12 25.9 13.9
6 -4 12 19.1 8.8
6 4 -12 6.8 7.4
6 -4 12 28.1 8.8
-6 4 12 38.9 10.8
-6 5 -12 231.78 35.7
6 -5 -12 185.68 28.5
6 5 12 157.68 30
6 5 -12 147.79 25
-6 -5 -12 216.68 34.4
6 -5 12 180.08 23.4
-6 5 12 181.98 25.3
6 -5 12 169.58 21.8
6 6 12 2.5 6.7
6 -6 -12 8.3 10.2
-6 6 -12 1.8 5.7
6 -6 12 10.4 6.9
-6 6 12 2.8 6.7
6 6 -12 12.4 9.1
-6 -6 -12 4 6.8
6 -6 12 11.2 6.6
6 7 12 -0.3 8.3
6 -7 -12 5.9 7.2
-6 7 -12 7.2 7.5
6 -7 -12 -1.2 5.9
-6 7 12 8.6 9.3
6 7 -12 3.8 6.5
6 -7 12 6.5 6.9
-6 -7 -12 2 7.1
-6 8 -12 98.29 21.2
6 -8 -12 67.49 17.1
6 8 12 73.89 22
6 -8 -12 44.7 15.5
6 8 -12 98.49 20.5
-6 -8 -12 69.89 18.2
6 -8 12 69.19 15.5
-6 9 -12 13.1 9.7
6 -9 -12 30.3 13.8
6 9 12 2.6 11.3
6 -9 -12 6.1 8.3
6 -9 12 12.8 8.8
-6 -9 -12 13.1 9.1
6 9 -12 8.1 8.4
6 9 -12 9.3 3.6
-6 9 12 19.7 14.2
-6 10 -12 32.1 13.6
6 -10 -12 21.5 10.4
-6 10 12 39.5 19.8
6 10 -12 36.6 7.2
6 -10 12 42.8 13.9
-6 -10 -12 23.4 10.3
6 10 -12 36.1 13.7
6 -11 -12 -3.3 5.2
-6 11 -12 4 8.9
-6 -11 -12 8.7 7.3
6 11 -12 0.3 6.9
-6 11 12 2.7 18.3
7 0 12 147.79 25.8
7 0 -12 165.68 28.3
-7 0 -12 145.49 25.8
7 -1 -12 12.9 8.3
-7 1 -12 28.6 12.2
7 -1 -12 16.6 6.8
7 1 -12 17.2 11
7 1 -12 17 5.4
7 -1 12 15 9.2
-7 -1 -12 22.7 12.9
7 -2 -12 46.5 10.8
7 -2 -12 42.3 13.5
-7 2 -12 47.5 15.4
7 2 12 8.7 8.5
7 2 -12 78.89 19.6
-7 -2 -12 48.1 16.4
7 -2 12 62.19 17.8
7 2 -12 42.8 7.1
7 -3 -12 -1.8 3.6
7 3 12 1.8 5.5
-7 3 -12 -1.2 6.3
7 -3 -12 -0.6 4.8
7 -3 12 1.1 5.3
7 3 -12 2.2 5.7
-7 -3 -12 -1.4 6.1
7 -3 12 -0.5 5.7
7 3 -12 1.3 2.1
7 4 12 12.6 12.7
-7 4 -12 6 7.6
7 -4 -12 1.7 5.8
7 -4 -12 -5.3 3.8
7 4 -12 5.3 2.3
7 -4 12 2.9 5.6
7 4 -12 4.6 6.7
7 -4 12 12.3 8.1
-7 -4 -12 8.1 6.7
7 5 12 21.5 13.5
7 -5 -12 39.9 12.9
7 -5 -12 44.9 17.8
-7 5 -12 38 14
7 5 -12 61.39 15.2
7 -5 12 42.5 10.9
7 -5 12 50.19 14.3
7 6 12 3.2 8.8
7 -6 -12 8.3 9.5
7 -6 -12 9.5 8.8
-7 6 -12 9.9 9.8
-7 -6 -12 22.2 12.1
7 -6 12 19.9 7.8
-7 6 12 26.1 12.2
7 6 -12 25.1 13
7 -6 12 10.1 7.6
7 -7 -12 65.29 16.9
7 -7 -12 36.1 16.8
-7 7 -12 36 14.6
7 7 12 40.1 17.1
-7 -7 -12 53.29 15.1
7 -7 12 60.99 14.4
-7 7 12 49 15.5
7 7 -12 101.89 21.9
7 -8 -12 7.9 10.1
-7 8 -12 -4.6 4.6
7 8 12 10 13.2
7 -8 -12 9.7 9.2
7 8 -12 4.8 3.1
7 -8 12 3.3 6.1
-7 8 12 2.5 9.9
7 8 -12 8.4 8.2
-7 -8 -12 7.3 8
-7 9 -12 198.58 32.4
7 -9 -12 179.28 30
7 -9 -12 191.68 30.8
7 9 12 200.68 47.3
-7 -9 -12 157.38 26.4
7 -9 12 193.38 27.4
7 9 -12 188.48 13.6
-7 9 12 140.49 29.5
7 9 -12 210.78 31.7
7 -10 -12 12.1 9.1
-7 10 -12 2.9 8.5
7 10 -12 -1.2 6.9
-7 -10 -12 6.8 7.6
7 -10 12 4.6 7.4
-7 10 12 3.8 14.4
7 10 -12 0.9 12.9
7 -11 -12 9.7 7.7
-7 11 -12 5.6 9.4
7 11 -12 14.1 10.7
7 -11 12 25.3 13
8 0 -12 134.39 17.3
-8 0 -12 162.58 31.3
8 0 -12 119.59 21.9
8 -1 -12 47.8 14.9
8 -1 -12 48.9 11
-8 1 -12 52.29 17.3
8 -1 12 36.4 14.6
-8 -1 -12 58.59 19.1
8 1 -12 34.4 8.1
8 1 -12 62.99 18.8
8 -2 -12 22.9 8.8
-8 2 -12 33.6 12.1
8 -2 -12 25.7 10.7
8 2 12 15.2 10
8 2 -12 10 5
8 2 -12 9.7 7.5
8 -2 12 41 14.8
-8 -2 -12 26.8 14.2
-8 3 -12 -0.6 5.1
8 3 12 1.9 6.3
8 -3 -12 0.8 4.8
8 -3 12 -3.3 5.3
8 -3 12 -1.7 4.9
8 3 -12 -3.2 3.6
8 3 -12 2.5 3.1
8 -4 -12 145.69 23.4
8 -4 -12 102.29 21.3
8 4 12 113.69 24.8
-8 4 -12 108.39 25.5
8 -4 12 106.99 19
8 4 -12 135.79 11.5
8 -4 12 152.18 25.7
8 4 -12 159.18 26.5
-8 -4 -12 157.38 29.6
8 -5 -12 34.6 12.7
8 -5 -12 11.5 12.7
-8 5 -12 57.79 16.5
8 -5 -12 35.5 13.6
8 5 12 30.7 14.9
8 -5 12 34.5 11.3
-8 -5 -12 38.8 15.5
8 5 -12 57.19 17.8
8 -5 12 38.4 11.7
8 5 -12 38.4 6.4
8 6 12 13.7 13.9
8 -6 -12 2.5 7
-8 6 -12 -1.1 5.6
8 -6 -12 9.7 9.6
8 -6 12 6.3 6.9
-8 -6 -12 6.8 7.8
8 6 -12 2.9 3.4
-8 6 12 12.9 9.3
8 -6 12 5.2 6
8 6 -12 8.6 3.8
8 6 -12 8 8
8 -7 -12 6.3 11
8 7 12 26.9 17.1
-8 7 -12 12.1 11
8 -7 -12 21.2 11.9
8 7 -12 -3.9 4.2
8 -7 12 9.1 5.4
-8 -7 -12 4.8 8.3
8 -7 12 2.6 6.2
8 7 -12 8.4 4.5
8 7 -12 5.1 3.5
8 8 12 125.39 30.2
8 -8 -12 179.18 37.6
8 -8 -12 202.18 32.8
-8 8 -12 153.18 31.2
-8 8 12 163.18 31.4
8 8 -12 133.59 12.2
8 -8 12 181.48 27.6
8 8 -12 158.98 12.7
8 8 -12 167.68 28.2
8 8 -12 159.38 32.3
-8 -8 -12 173.68 30.7
-8 9 -12 41.7 15.9
8 -9 -12 24 12.4
-8 -9 -12 41.4 14.9
8 -9 12 37.4 13.8
8 9 -12 34 9.5
8 9 -12 27.4 20.1
-8 9 12 68.29 24.3
8 9 -12 69.39 19.9
-8 10 -12 -3.7 7.5
8 -10 -12 -0.4 6.7
8 10 -12 6.7 10.5
-8 -10 -12 2.2 6.9
-8 10 12 5.4 28.5
8 -10 12 14 10.7
-9 0 -12 316.77 54.79
9 0 -12 253.77 39.2
9 0 -12 248.88 22.3
9 -1 -12 167.98 31.8
9 -1 -12 189.38 23.2
9 -1 -12 171.58 32.5
9 1 12 219.88 38
-9 1 -12 158.58 30.3
9 1 -12 161.68 26.1
-9 -1 -12 246.78 38
9 1 -12 178.08 20.4
-9 2 -12 76.89 19.8
9 2 12 33.2 14.2
9 -2 -12 53.59 19.5
9 -2 -12 92.99 17.1
9 -2 12 97.29 22.8
9 2 -12 93.99 23.2
-9 -2 -12 29.3 15
9 2 -12 65.29 11.2
-9 3 -12 -4.3 6.1
9 3 12 -2 5.7
9 -3 -12 3.1 5.9
9 -3 -12 -5.5 3.8
9 -3 12 -3.2 5
-9 -3 -12 7.7 9.7
9 3 -12 0.7 4.7
9 3 -12 -2 4.9
9 -3 12 -4.2 4.5
9 -4 -12 19.2 15
9 -4 -12 25.5 10.4
9 4 12 14.5 10.2
9 -4 -12 33.7 14.2
-9 4 -12 51.89 17.7
9 -4 12 26.4 18.3
9 -4 12 40.2 13.8
9 4 -12 31.9 13.6
-9 -4 -12 27.1 15.6
9 4 -12 32.7 7.7
9 -5 -12 33.3 12.8
9 5 12 12.9 13
9 -5 -12 14 13.1
9 -5 -12 15.3 10.8
-9 5 -12 18.3 12.4
-9 -5 -12 39.5 14.9
9 5 -12 69.39 18.7
9 -5 12 45.2 13.9
9 -5 12 24.9 11.5
9 5 -12 29.5 7.1
-9 6 -12 25.8 12.4
9 6 12 9.9 14.2
9 -6 -12 13.8 12.5
9 -6 -12 36.6 14.7
9 6 -12 58.99 9.5
9 6 -12 92.59 21.9
9 -6 12 39.3 12.2
9 -6 12 20.3 11
-9 -6 -12 40.6 15.3
9 6 -12 61.09 21.6
9 7 12 -3.1 12.8
9 -7 -12 0.4 7.5
9 -7 -12 -2.3 5.7
9 -7 -12 1.5 9.8
-9 7 -12 5 8
9 7 -12 -2.8 3.7
9 -7 12 -0.9 4
-9 -7 -12 12.2 10
9 -7 12 -4 5.6
9 7 -12 -0.8 11.6
9 7 -12 -0.5 3.3
9 7 -12 8.2 8.6
9 -8 -12 1.5 7.8
-9 8 -12 -2 6.6
-9 -8 -12 0.9 6.8
9 -8 12 -2.8 6
9 8 -12 5.9 9.4
9 8 -12 5.5 19
9 8 -12 -4.2 4.1
9 -9 -12 32.3 13.7
-9 9 -12 49 18.6
-9 9 12 29 20.5
9 9 -12 26.2 13.9
-9 -9 -12 38.7 15.7
9 -9 12 26.8 12.6
9 -10 -12 1.5 7.4
-9 10 -12 4.8 10.8
9 10 -12 2.3 9.3
9 -10 12 -4 7.8
-9 -10 -12 -2.5 6.7
10 0 -12 125.39 27.1
10 0 -12 180.78 34.3
-10 0 -12 162.38 34.2
10 0 -12 118.49 18.9
-10 1 -12 14.8 12.1
10 -1 -12 54.49 17.5
10 1 12 46 17.9
10 -1 -12 49.7 12.4
10 -1 -12 40.5 17.8
10 1 -12 44.1 16.9
-10 -1 -12 77.99 22.5
10 -1 12 30.4 14.7
10 1 -12 55.69 11.6
10 1 -12 45.7 19
10 -2 -12 1.3 11.9
-10 2 -12 2.6 8.7
10 -2 -12 3.9 6.1
10 -2 -12 10.1 10
10 2 12 7.9 10.9
10 2 -12 7.8 5.6
10 -2 12 4 11.1
-10 -2 -12 -2.4 4.4
10 2 -12 17.1 11.2
10 2 -12 6.1 15.2
10 -3 -12 14.2 12.3
10 -3 -12 17.4 9.6
10 3 12 14.6 11.7
10 -3 -12 14.6 10.9
-10 3 -12 9.1 8.4
10 3 -12 12.7 11.6
10 3 -12 22.1 7.6
10 3 -12 5.3 11.3
10 -3 12 27.1 11.5
10 -3 12 15.6 11.2
-10 -3 -12 49.6 17.1
10 4 12 12.3 11.7
-10 4 -12 1.6 7.5
10 -4 -12 24.6 15.5
10 -4 -12 20 12
10 -4 -12 30.7 11.9
10 -4 12 13 10.7
10 4 -12 1.6 11
10 4 -12 15.1 6.6
10 -4 12 -0.2 6.1
-10 -4 -12 12.7 12
10 -5 -12 9.6 10.7
10 -5 -12 2.1 7.1
10 5 12 1.2 9.8
-10 5 -12 11.9 15.3
10 -5 -12 -0.1 9.2
10 -5 12 13.3 9.8
10 5 -12 8.8 11.5
10 5 -12 4.5 4.9
10 5 -12 17.1 16.9
10 -5 12 7 8.6
-10 -5 -12 21.6 15
10 -6 -12 13.5 11.2
10 -6 -12 12 10.9
10 6 12 -3.6 12.3
-10 6 -12 6.8 10.9
10 -6 12 1.6 6.5
10 6 -12 7.6 12
-10 -6 -12 9.5 10.4
10 6 -12 5.1 5.1
10 -6 12 12.9 11.1
10 -7 -12 5.6 9.5
10 -7 -12 4.9 12.5
10 -7 -12 18.5 12.1
10 7 -12 35.9 21.9
10 -7 12 10.1 9.4
-10 -7 -12 27.2 16
10 -7 12 -0.4 4.5
10 7 -12 24.2 7.3
10 -8 -12 -1.5 7.1
-10 8 -12 3.2 10.2
-10 -8 -12 -4.4 6.5
10 -8 12 -2.4 6.9
10 8 -12 -1 4.4
10 -9 -12 3.2 8.7
-10 9 -12 6.3 10.7
-10 -9 -12 23.4 14.2
10 -9 12 8.9 10.3
10 9 -12 14.6 21.5
11 0 -12 80.19 23.8
-11 0 -12 80.89 23.6
11 0 -12 71.39 15.5
11 0 -12 45.9 22.3
11 0 12 35.8 16.1
11 -1 -12 5.6 17.7
11 -1 -12 8.6 8.9
11 -1 -12 -2.4 5.4
-11 1 -12 1.4 6.8
11 1 12 -2.9 7.4
11 1 -12 2.2 8.9
11 -1 12 -0.3 8.6
11 1 -12 -3.7 3.9
-11 -1 -12 13.6 10.4
11 1 -12 4.7 12.2
11 -2 -12 0 6
11 -2 -12 1.8 12.9
11 -2 -12 6 10.2
-11 2 -12 -5.1 4.7
11 2 -12 -3.5 4.8
11 2 -12 0.2 5.1
-11 -2 -12 -5.7 4.5
11 2 -12 7.9 14.4
11 -2 12 -1.8 8.6
-11 3 -12 -1.8 6.5
11 -3 -12 14.8 13.1
11 -3 -12 7.9 7.9
11 -3 -12 7.8 13
11 3 12 -4.9 9.3
11 3 -12 5.1 5.9
11 -3 12 -1.7 7.7
11 3 -12 -2.3 11.3
-11 -3 -12 -4.1 6.1
11 3 -12 -0.2 7.6
11 -3 12 9.3 9.5
11 -4 -12 37.7 13.9
11 -4 -12 14.7 14
11 -4 -12 12.8 10.6
11 4 12 18.9 15.1
-11 4 -12 12.8 12
-11 -4 -12 38.5 19.7
11 4 -12 21 14
11 -4 12 17.5 10.8
11 4 -12 27 9
11 -4 12 17.7 12.9
11 -5 -12 7.7 13.8
-11 5 -12 6 9.1
11 -5 -12 12.3 11.5
11 -5 -12 45.9 16.1
11 5 12 -3.4 15.1
11 -5 12 31.5 14.4
11 5 -12 4.1 7.8
-11 -5 -12 19.9 15.4
11 5 -12 17.7 7.9
11 -5 12 8.7 11
11 -6 -12 14.4 11.5
-11 6 -12 15.8 14.2
11 -6 -12 3.3 13.8
11 -6 -12 -3.2 7.6
11 6 -12 -3.1 6
11 -6 12 5.5 9.1
-11 -6 -12 10.8 11.2
11 6 -12 1 4.9
-11 7 -12 0.2 7.6
11 -7 -12 -0.4 11.8
11 -7 -12 0 8
11 7 -12 4.9 9.4
11 7 -12 3.7 5.8
-11 -7 -12 -4 6.2
11 -7 12 -3.6 7.2
11 -8 -12 86.49 24.2
-11 8 -12 49.7 22.1
11 -8 -12 72.69 21.1
11 8 -12 43.5 17.2
-11 -8 -12 98.69 25.6
12 0 -12 303.27 39.7
12 0 12 177.78 40.1
12 0 -12 139.99 34.2
-12 0 -12 327.67 52.69
12 0 -12 274.17 31.4
12 1 12 -0.2 10.1
12 -1 -12 11.5 12.1
-12 1 -12 4.5 9.9
12 -1 -12 0.7 14.2
12 -1 -12 23.5 11.5
-12 -1 -12 12.5 11.5
12 1 -12 0.6 14.7
12 -1 12 4.8 13.6
12 1 -12 11.2 8.5
12 1 -12 11.1 11.1
12 2 12 8.1 14.7
12 -2 -12 6.7 10
12 -2 -12 4.8 8.1
-12 2 -12 16.1 15.2
12 -2 -12 6.3 14.4
12 -2 12 8.2 9.5
12 2 -12 0.2 13.1
12 -2 12 1.8 10.8
12 2 -12 -0.2 5.4
-12 -2 -12 -0.9 7.8
12 2 -12 6.1 8.2
12 -3 -12 2 9.5
12 -3 -12 6.1 15.3
12 3 12 -0.3 12.4
12 -3 -12 11.7 9.4
-12 3 -12 -0.9 6.4
12 3 -12 9.4 7.6
12 -3 12 8.1 9.1
12 3 -12 10.9 11.8
-12 -3 -12 -4.6 6.2
12 -3 12 -2.1 11.3
-12 4 -12 18.3 15
12 -4 -12 27.7 20.6
12 -4 -12 41.2 14.8
12 -4 -12 38.7 16.7
12 4 -12 19.2 9.6
-12 -4 -12 25.6 17.1
12 -4 12 24.3 13.4
12 4 -12 15.5 12.7
12 -5 -12 87.19 21.2
-12 5 -12 155.58 36.8
12 -5 -12 65.49 29
12 -5 -12 120.79 29.7
-12 -5 -12 96.59 25.3
12 -5 12 47.9 16.8
12 5 -12 114.79 18.5
12 -6 -12 -3.7 8
-12 6 -12 4.4 11
-12 -6 -12 -4.6 7.8
12 6 -12 1.3 5.8
12 -7 -12 -0.4 9.4
12 -7 -12 -0.8 8.4
-12 7 -12 1.8 10.6
-12 -7 -12 7.3 11
12 -7 12 3.6 10.9
12 7 -12 3.5 8.4
13 0 -12 43.9 13.4
13 0 -12 28.2 16.9
13 0 12 39.2 21.5
-13 0 -12 14.9 14.6
-13 1 -12 139.09 34.7
13 -1 -12 99.89 26.7
13 -1 -12 102.99 21.4
13 1 -12 108.89 21.6
13 -1 12 87.09 26.4
13 1 -12 143.19 34
-13 -1 -12 114.89 28.8
13 -2 -12 -3 5.5
13 -2 -12 -3.3 6.2
-13 2 -12 1.8 10
13 -2 -12 9.9 24
13 -2 12 7.3 15.4
-13 -2 -12 6.3 11.5
13 2 -12 0.3 9.2
13 -3 -12 3.2 7.7
-13 3 -12 3.2 10.8
13 -3 -12 14.1 22.5
13 -3 -12 16 21.5
13 3 -12 -3.9 5.6
-13 -3 -12 3.4 16.4
13 -3 12 -2.6 9.8
13 3 -12 8.1 9.7
13 -4 -12 84.49 41
13 -4 -12 122.29 29.1
13 -4 -12 100.39 23
-13 4 -12 151.28 36.7
13 4 -12 106.59 25
13 -4 12 140.79 28.4
13 4 -12 121.39 25.5
-13 -4 -12 55.79 20.9
13 -5 -12 19.1 14.3
-13 5 -12 0.6 9.8
-13 -5 -12 8 13.1
13 -5 12 6.5 11.4
13 5 -12 -1.4 6.6
13 -6 -12 -0.2 7.9
13 -6 -12 1 10.2
13 6 -12 -3.3 7.9
13 -6 12 -7.4 8.1
14 0 -12 -1.8 6.8
-14 0 -12 1.5 10.2
14 0 -12 11.4 10.9
14 -1 -12 0.9 8
14 -1 -12 -2 6.9
-14 1 -12 -3.6 9.5
14 1 -12 -2.2 7.8
14 1 -12 3.8 13.6
-14 -1 -12 3.2 13.2
14 -2 -12 17.9 12.9
14 -2 -12 14.2 11.9
-14 2 -12 55.99 23.1
14 2 -12 43.1 14.4
14 -2 12 51.09 20.1
14 2 -12 64.69 31.1
-14 -2 -12 -0.5 9.5
-14 3 -12 16.2 15
14 -3 -12 39.6 19
14 -3 -12 13.3 12.7
14 -3 12 9.8 11.8
14 3 -12 39.7 14.3
14 3 -12 15.7 15.3
-14 -3 -12 27.1 19.3
0 0 13 3.1 2.8
0 0 13 -1.2 3.4
0 0 -13 -5.1 2.7
0 1 13 -2 3.3
0 1 -13 1.1 4.1
0 -1 -13 1.7 4.8
0 -1 13 -0.5 1.4
0 -1 13 -1 4.4
0 1 13 -2.3 2.4
0 -2 13 636.44 44.5
0 2 13 685.13 38.7
0 -2 -13 674.93 50.49
0 2 -13 690.63 49.4
0 3 13 0.2 4.2
0 -3 -13 -0.9 3.6
0 3 13 4 4.3
0 3 -13 5.6 6.2
0 -4 -13 84.59 19.4
0 4 -13 99.29 20.1
0 4 13 113.29 18.2
0 -5 -13 5.4 7.3
0 5 -13 -4.1 2.6
0 5 13 3.5 6
0 -6 -13 2.4 6.2
0 6 -13 8 7.3
0 6 13 -1.2 5.1
0 6 13 1.6 6.6
0 7 13 -1.2 6.3
0 -7 -13 -2 4.5
0 7 -13 1.3 4.9
0 7 13 -4 4.8
0 -8 -13 -1.4 4.8
0 8 13 3.2 8.5
0 8 13 5.2 9.3
0 8 -13 -2.9 3.6
0 9 13 -3.8 7.9
0 -9 -13 -1.8 4.8
0 9 -13 -0.9 4.6
0 9 13 -4.4 7.7
0 10 13 171.28 31.9
0 -10 -13 175.78 25.1
0 10 -13 219.08 28.8
0 10 13 166.18 35.1
0 -11 -13 -1.1 4.4
0 -11 -13 -1.1 5.3
0 11 -13 0.1 6.8
0 11 13 -3.7 13.2
1 0 -13 -1.9 4.1
-1 0 13 0.4 2.1
1 0 13 -1.8 3.3
-1 0 -13 4.2 5.7
-1 0 13 3.3 5.5
1 -1 -13 172.78 29.6
-1 1 -13 155.28 26.2
-1 -1 13 146.69 22.8
1 1 13 134.19 24.1
-1 1 13 113.59 20.5
-1 -1 -13 109.09 21
1 1 -13 194.48 28.5
1 -1 13 133.09 21.9
-1 1 13 124.79 14.1
1 -2 -13 41.4 12.3
-1 2 -13 52.79 15.3
1 2 13 39.3 9.2
-1 2 13 47.1 9.8
1 -2 13 44.8 12.2
1 2 -13 15.4 9.8
-1 -2 -13 33.7 12.5
1 -2 13 38.6 4.5
1 3 13 6.4 5.2
1 3 13 -0.4 4.1
-1 3 -13 0.9 5.3
1 -3 -13 0.7 4.7
1 3 -13 5.2 6.6
-1 -3 -13 5 6
1 -3 13 3.6 5.5
-1 3 13 6.7 7.2
1 -4 -13 241.38 30.9
-1 4 -13 240.88 31.5
1 4 13 286.07 25.3
-1 -4 -13 286.47 38.2
-1 4 13 257.97 23.4
1 4 -13 251.97 32.2
1 -5 -13 22.2 9.4
-1 5 -13 -1.1 4.6
1 5 13 22.7 10.1
-1 -5 -13 9.9 7.5
1 5 -13 13 8
-1 5 13 32 10.5
1 6 13 -1.4 4.5
1 -6 -13 9.7 8.3
-1 6 -13 7.3 7.7
-1 -6 -13 12.9 9.8
1 6 -13 24.1 10.8
-1 6 13 18.1 9.5
-1 6 13 -2.5 4.5
1 -7 -13 125.49 24.6
1 7 13 174.08 27
1 7 13 136.19 26.4
1 7 -13 187.78 31.2
-1 -7 -13 104.49 21.1
-1 7 13 145.79 25.9
1 -8 -13 3.7 6.8
1 8 13 -2.9 5.9
-1 8 -13 1.1 5
1 8 13 2.5 7.8
-1 -8 -13 2.9 6.7
-1 8 13 -2.9 7.1
-1 8 13 -1.6 7.1
1 8 -13 3.4 5.8
1 -9 -13 129.59 22.8
1 9 13 138.39 27.9
-1 9 -13 140.29 23.1
1 9 13 132.89 28.7
-1 9 13 101.59 24.3
-1 9 13 90.89 22.8
1 9 -13 128.49 22.4
-1 -9 -13 116.29 21.6
1 10 13 -1.3 10.7
1 -10 -13 -2.8 4.4
1 10 13 -3 10.4
-1 10 -13 1.4 6.9
1 10 -13 4.1 6.7
-1 10 13 -4 9.8
-1 -10 -13 -4.1 3.8
-1 10 13 -1.6 12
1 11 13 -1.7 14.6
1 -11 -13 0.8 6.3
-1 11 -13 4.3 7.4
1 -11 -13 2.5 5.4
-1 11 13 1.5 14.5
-1 -11 -13 2 5.3
1 11 -13 3.2 6.9
-2 0 13 2.1 1.9
2 0 13 4.6 5.5
-2 0 -13 -0.8 4.4
2 0 -13 0.3 4.9
-2 1 -13 224.88 32.7
2 1 13 207.88 30.3
2 -1 -13 120.19 22.5
-2 1 13 215.58 15.5
-2 -1 -13 144.49 26.2
2 -1 13 167.78 26.5
-2 1 13 281.07 34.4
-2 2 -13 47.4 14.4
2 -2 -13 32.8 11.6
2 2 13 41.3 13.2
2 2 -13 46.1 13
2 -2 13 77.89 17.3
2 -2 13 53.29 7.5
-2 -2 -13 29.2 11.2
-2 2 13 42.8 12.5
-2 2 13 58.09 11
2 3 13 31.3 12.4
2 -3 -13 85.39 20.7
-2 3 -13 53.69 15.7
2 -3 13 56.79 7.2
-2 3 13 74.59 18.3
2 3 -13 56.39 13.9
-2 -3 -13 56.29 16.6
2 -3 13 68.69 14.4
-2 4 -13 90.69 18.2
2 -4 -13 83.49 18.6
2 -4 13 112.19 8.7
-2 4 13 94.99 16.5
2 4 -13 112.79 21.2
2 -4 13 97.69 16.7
-2 -4 -13 91.39 20.5
-2 5 -13 201.28 29.6
2 5 13 159.08 24.1
2 -5 -13 212.18 29.7
2 -5 13 183.58 12.6
-2 -5 -13 213.28 30.1
2 5 -13 203.98 29.5
-2 5 13 220.88 26.6
2 -6 -13 -1.7 4.2
-2 6 -13 1.5 5.4
-2 6 13 -0.2 5.2
2 6 -13 -1.2 3.8
-2 -6 -13 -2.5 4.6
2 -7 -13 31 11.6
-2 7 -13 30.2 11.6
2 7 13 5 7.7
2 7 13 16.9 11.6
-2 -7 -13 6 7.3
-2 7 13 3.4 7.9
-2 7 13 0 6.1
2 7 -13 17.8 9.2
-2 8 -13 6.7 8.5
2 -8 -13 33.5 12.8
2 8 13 24.6 13.4
2 8 13 18.9 14.5
-2 -8 -13 17.7 9.4
-2 8 13 7.4 14.4
2 8 -13 37 12.1
-2 8 13 4.7 8.3
2 9 13 61.89 20
-2 9 -13 43.1 12.7
2 9 13 41.4 17.9
-2 9 13 18.5 14.5
2 9 -13 70.39 16.4
-2 9 13 21.2 13.9
-2 -9 -13 49.4 19.3
2 -10 -13 23.5 10.5
-2 10 -13 25.4 11.2
2 10 13 26.1 25
2 -10 -13 12.3 10.3
2 10 13 14.6 17.4
-2 -10 -13 23.1 11.2
2 10 -13 41.7 13
-2 10 13 36 18.5
2 11 13 13.9 17.3
2 -11 -13 0.3 5.1
-2 11 -13 10.8 9.4
2 11 -13 4.9 7.4
-2 11 13 -2.1 14.3
-2 -11 -13 2.5 5.5
3 0 -13 -4 2.9
3 0 13 -1.9 3.1
-3 0 -13 -4.6 3.8
3 1 13 73.99 18.2
-3 1 -13 94.29 18
3 -1 -13 83.99 17.8
-3 1 13 104.19 12.1
3 1 -13 115.19 20.5
3 -1 13 115.49 21.4
-3 -1 -13 77.39 19.3
-3 2 -13 599.34 47.5
3 -2 -13 697.53 50.79
3 2 13 603.14 47.2
-3 -2 -13 634.04 49.8
3 -2 13 637.44 45.1
-3 2 13 646.24 36.6
-3 3 -13 138.19 22.8
3 -3 -13 99.59 19.5
-3 3 13 165.08 20
-3 -3 -13 144.39 24.4
3 -3 13 166.38 24.1
3 -3 13 160.68 13.1
3 3 -13 150.28 24.6
3 -4 -13 23.1 10.2
-3 4 -13 34.8 13.4
3 4 13 -2.2 4.2
-3 4 13 13.6 7.7
3 -4 13 8.8 6.4
3 -4 13 21.3 5.7
-3 -4 -13 30.3 11.7
3 4 -13 37 12.6
-3 4 13 10.3 8.2
-3 5 -13 7 7
3 -5 -13 12.3 7.9
3 5 13 -1.5 4.3
-3 -5 -13 25.7 11.6
3 5 -13 7.2 7.1
3 -5 13 20.4 7.4
3 -5 13 14 4.9
-3 5 13 -2.3 4.4
-3 5 13 6.9 6.9
3 -6 -13 103.79 22.4
-3 6 -13 70.69 16.4
3 6 13 65.59 18
-3 6 13 92.99 21.8
3 6 -13 84.89 17.2
-3 -6 -13 95.99 21.5
3 -6 13 93.29 12.4
3 7 13 87.79 19.3
-3 7 -13 84.79 18.6
3 -7 -13 77.69 19.3
3 7 13 83.29 21.8
-3 7 13 70.29 18
-3 -7 -13 68.89 17.2
-3 7 13 55.69 16.3
3 7 -13 119.99 21.3
-3 8 -13 62.29 17
3 8 13 46.2 16.8
3 8 13 52.69 17.5
-3 8 13 65.09 18.9
3 8 -13 71.39 16.7
-3 8 13 42.1 17
3 9 13 8 12.1
3 9 13 -2.3 8.4
3 -9 -13 3.5 7.2
-3 -9 -13 0.1 5.7
-3 9 13 2.9 10.6
3 9 -13 1.3 5.3
3 -10 -13 164.08 25.8
3 10 13 134.39 30.5
-3 10 -13 189.18 29.1
3 -10 -13 182.38 28
3 10 13 125.89 32.7
-3 10 13 283.67 43
3 10 -13 199.88 27.8
3 -11 -13 1.7 5.9
3 11 13 -1.4 24.6
-3 11 -13 -4.2 5.9
-3 -11 -13 2.1 5.7
3 11 -13 1.8 6.8
-3 11 13 6.6 15.9
-4 0 -13 7 8.5
4 0 13 -1.6 4
4 0 -13 -3.4 3.8
4 -1 -13 22.4 10.2
-4 1 -13 21.7 12.3
4 1 13 6.5 7.9
4 -1 13 14.4 9.1
-4 -1 -13 13.6 10.7
4 1 -13 22.4 11.4
-4 2 -13 117.79 22.5
4 2 13 122.29 25.7
4 -2 -13 131.79 24.1
-4 -2 -13 126.09 24.7
4 -2 13 141.29 24.6
4 2 -13 104.59 21.9
-4 2 13 124.89 16
-4 3 -13 57.89 14.8
4 -3 -13 41.8 14
-4 -3 -13 36.6 12.4
4 3 -13 45.5 13.3
4 -3 13 71.09 11.2
4 -3 13 75.89 17.2
-4 3 13 63.49 12.4
-4 4 -13 34.4 12
4 -4 -13 37.8 13.9
-4 -4 -13 65.59 18.9
-4 4 13 38.3 10.6
4 -4 13 35.1 13.7
4 -4 13 55.89 9.8
4 4 -13 45.9 13.5
4 -5 -13 55.09 17.1
-4 5 -13 39.7 14
4 5 13 27.7 13
-4 5 13 18.4 9.5
-4 -5 -13 44.9 13.7
4 5 -13 53.59 15.7
4 -5 13 45 10.6
4 -5 13 47.8 9.7
-4 6 -13 13.7 9.5
4 6 13 9.8 8.5
4 -6 -13 15.7 10.9
4 -6 13 14 5.9
-4 -6 -13 19.5 11.2
4 6 -13 45.5 12.8
-4 7 -13 0.2 6
4 7 13 -1.5 5.8
4 -7 13 -0.6 3.6
-4 7 13 -0.6 5.9
4 7 -13 -1.2 4.3
4 -8 -13 1.9 6.1
4 8 13 9.1 11.7
4 8 13 -1.2 8.3
-4 8 -13 -0.8 4.9
4 8 -13 8.3 8
4 -8 13 3.2 5.1
-4 8 13 -4.6 6
-4 -8 -13 23.4 11.6
4 9 13 106.99 28.3
-4 9 -13 148.39 25.6
4 9 13 141.79 29.5
4 -9 -13 131.79 24.2
4 -9 -13 101.69 21
-4 -9 -13 120.49 22.8
-4 9 13 71.39 20.6
4 9 -13 123.59 22.4
-4 10 -13 1.8 7.4
4 10 13 -9 12.3
4 -10 -13 4.9 7.7
-4 -10 -13 9.9 8.1
4 10 -13 1 9.6
-4 11 -13 19.1 13.6
4 11 13 19 20.4
-4 -11 -13 20.9 8.9
4 11 -13 25.8 11.9
5 0 13 -1.1 4.3
-5 0 -13 4.6 7.1
5 0 -13 5.4 6.4
-5 1 -13 5.3 6.6
5 -1 -13 -3.9 2.8
5 1 13 -2.7 3.9
-5 -1 -13 -1.4 4.8
5 -1 13 1 4.9
5 1 -13 4.6 6.7
5 -2 -13 408.76 38.3
-5 2 -13 419.06 39.3
5 2 -13 421.76 38.1
5 -2 13 329.37 32.3
-5 -2 -13 366.96 46.1
-5 3 -13 113.89 24
5 -3 -13 124.69 24.3
5 -3 13 134.19 23.4
-5 3 13 129.39 18.4
-5 -3 -13 161.78 28.4
5 3 -13 89.79 20
5 -3 13 123.59 16.7
5 4 13 3.9 8
-5 4 -13 0.5 5.4
5 -4 -13 4.3 7.4
5 4 -13 2.1 5.8
5 -4 13 4.9 4.7
-5 4 13 -2.6 3.9
5 -4 13 5.3 5.9
-5 -4 -13 -0.4 5
-5 5 -13 3.7 5.6
5 5 13 -1.8 4.6
5 -5 -13 -3.6 4.8
-5 5 13 2.9 6.1
5 5 -13 3.9 6.7
5 -5 13 5.2 5.6
-5 -5 -13 -1.2 5.3
5 -5 13 4.6 4.9
5 -6 -13 198.48 45.9
-5 6 -13 186.08 31.7
5 6 13 138.29 25.9
-5 6 13 184.98 28.3
5 -6 13 167.18 19.7
5 6 -13 180.68 27.7
5 -6 13 188.58 22.1
5 7 13 -1.7 6.8
5 -7 -13 8.5 8.6
-5 7 -13 5.4 7.4
5 -7 13 5.9 5.6
-5 -7 -13 5.1 7.7
5 7 -13 -0.5 5
-5 7 13 11.2 9.1
5 -8 -13 -1.8 6.6
5 8 13 -0.6 9
5 -8 -13 9.5 8.9
-5 8 -13 0 5.6
-5 8 13 -3.9 8.3
5 -8 13 6.9 5.8
-5 -8 -13 2.7 7.4
5 8 -13 -0.5 5.1
5 9 13 13.7 14.3
5 -9 -13 11.4 10.1
5 -9 -13 13.9 10.2
-5 9 -13 8.7 8.2
-5 -9 -13 12.4 9
-5 9 13 27.1 14.9
5 -9 13 5.5 7.1
5 9 -13 14.4 9
5 10 13 24.4 18.5
-5 10 -13 32.1 15.2
5 -10 -13 7 8.2
-5 10 13 0 12.7
5 10 -13 14.3 9.3
-5 -10 -13 2.8 7
5 -11 -13 -0.4 5.8
-5 11 -13 -0.8 7.5
-5 11 13 0 17.2
5 11 -13 -3.2 6
6 0 13 -2 4.8
6 0 -13 -3.9 3.7
-6 0 -13 9.9 9.5
-6 1 -13 11.4 9.1
6 -1 -13 28.7 11.7
6 1 -13 4.3 7.1
6 -1 13 4 6.3
-6 -1 -13 7.8 8.8
6 -2 -13 124.39 23.4
-6 2 -13 80.99 19.3
6 2 -13 113.49 23.6
-6 -2 -13 89.49 19.2
6 -2 13 95.69 18.7
6 -3 -13 304.57 39
-6 3 -13 263.47 37.2
6 3 13 303.27 42.1
6 -3 13 252.77 23
6 -3 13 327.17 38.4
-6 -3 -13 184.58 30
6 3 -13 219.08 31.8
-6 4 -13 85.29 21.6
6 -4 -13 78.89 20.1
6 4 13 59.79 17
-6 4 13 89.39 16.8
6 -4 13 70.79 16.4
-6 -4 -13 54.79 16
6 4 -13 75.29 16.8
6 -4 13 70.59 13.3
-6 5 -13 15.2 10.9
6 -5 -13 8.6 8.7
6 5 13 6.9 11.5
6 -5 13 5.9 5.8
6 5 -13 22.2 9.6
6 -5 13 5.7 5.7
-6 5 13 22.9 12.8
-6 -5 -13 12.1 9.6
-6 6 -13 128.39 27.6
6 -6 -13 149.88 28.2
6 6 13 133.99 29.2
6 6 -13 129.29 23.3
-6 -6 -13 144.99 28.9
6 -6 13 148.99 20.8
6 -6 13 133.99 18.3
6 7 13 24.9 15.6
6 -7 -13 18.3 12.7
-6 7 -13 49.2 15.7
6 -7 -13 44.7 14.7
-6 7 13 43 15.3
6 7 -13 74.79 17.4
6 -7 13 31.9 10.3
-6 -7 -13 45.3 16.2
6 -8 -13 5.4 8.3
6 -8 -13 0.3 7.9
-6 8 -13 -3.6 5
6 8 13 1.3 10.6
-6 -8 -13 3.1 7.2
-6 8 13 16.6 12.6
6 -8 13 -0.5 4.8
6 8 -13 1.1 6.6
-6 9 -13 49 16.9
6 -9 -13 28.4 15
6 -9 -13 62.49 17.8
6 -9 13 37.7 12.5
-6 9 13 9.5 13.3
-6 -9 -13 69.39 17.8
6 9 -13 66.09 17.3
-6 10 -13 113.09 23.5
6 -10 -13 109.49 21.4
-6 -10 -13 132.49 23.3
-6 10 13 65.49 24.2
6 -10 13 165.88 25.8
6 10 -13 117.29 23.2
-6 11 -13 16.1 12.8
6 -11 -13 16.8 10.2
-6 -11 -13 14.7 8.8
6 11 -13 27.6 15
7 0 -13 5.2 4.2
-7 0 -13 -3.8 3.8
7 0 -13 20.1 12.1
7 -1 -13 81.29 21.5
-7 1 -13 82.29 20.8
7 -1 -13 85.79 13.7
-7 -1 -13 56.89 18.2
7 1 -13 73.59 10
7 -1 13 75.89 19.3
7 1 -13 76.69 19.3
-7 2 -13 2.1 6.5
7 -2 -13 10.5 8.6
7 -2 -13 -3 3.5
7 2 13 4.4 6.6
7 -2 13 -2.6 4.4
7 2 -13 2.2 2.4
7 2 -13 8.8 8.3
-7 -2 -13 3.5 7.2
-7 3 -13 0.6 7.6
7 3 13 8.6 10.8
7 -3 13 6.6 6.5
7 3 -13 -0.5 5.4
7 -3 13 9.9 6.5
7 4 13 37.5 15.9
-7 4 -13 85.39 23.4
7 -4 -13 59.49 18.1
7 -4 13 63.59 14.4
7 4 -13 65.69 17
7 -4 13 54.69 14.1
-7 -4 -13 13.3 11.3
7 5 13 -0.1 7.1
-7 5 -13 1.7 6.7
7 -5 -13 -3.2 4.9
-7 -5 -13 23.6 11.5
7 -5 13 4.5 6.4
7 -5 13 1.1 4.9
7 5 -13 14.9 9.8
-7 6 -13 -1.5 5.8
7 6 13 8.6 12.3
7 -6 -13 19.5 11.2
7 -6 13 14.9 8.7
7 -6 13 0.2 4.4
7 6 -13 1.8 7.1
-7 -6 -13 -7.8 4.3
-7 6 13 -1.2 6.8
-7 7 -13 36.5 14.6
7 7 13 15.1 14
7 -7 -13 34.1 14.1
7 -7 13 24 9.8
7 7 -13 25.5 13.2
-7 -7 -13 40.1 16
-7 7 13 25.9 13.9
7 -8 -13 0.6 9
7 8 13 -0.8 11.6
7 -8 -13 1 7.2
-7 8 -13 1.5 7.2
-7 8 13 1.2 11.8
7 -8 13 3 6
7 8 -13 6.6 7.7
-7 -8 -13 0.5 6
7 -9 -13 2.3 6.6
-7 9 -13 5.1 9.2
7 -9 13 8.1 8.6
7 9 -13 -2.8 5.7
-7 -9 -13 0.4 6.1
-7 10 -13 -4.7 6.4
7 -10 -13 12.2 10.2
7 10 -13 10 20.3
-7 10 13 -2.2 20.1
7 10 -13 -2 6.5
7 -10 13 -3.7 6.5
-7 -10 -13 2.3 7.2
8 0 -13 0.4 3.5
-8 0 -13 -2.7 3.9
8 0 -13 -1.7 4.5
8 0 13 -1.2 6
-8 1 -13 25 13
8 -1 -13 31.1 8.9
8 1 13 19.5 11.8
8 1 -13 35 15.1
8 1 -13 26.7 6.8
8 -2 -13 43.8 11.6
-8 2 -13 54.19 19.1
8 -2 -13 38.7 14.5
8 2 13 50.49 16.5
8 -2 13 22.4 11.5
8 2 -13 32.7 6.8
-8 -2 -13 49.7 15.7
8 2 -13 29.7 12.3
-8 3 -13 -4.6 4.1
8 -3 -13 0.6 4.8
8 3 13 -4 6
8 -3 -13 -3.6 3.6
8 -3 13 -2.6 5
8 3 -13 -3.1 4.1
8 3 -13 2.7 2.6
8 -3 13 -1.9 5.8
-8 -3 -13 -0.5 5.6
-8 4 -13 8.7 8.4
8 -4 -13 0.1 5.9
8 -4 -13 -5.8 3.8
8 4 13 0.6 8.1
8 4 -13 0.6 6.6
8 -4 13 2.2 5.3
-8 -4 -13 -0.5 6.8
8 -4 13 2.5 6.9
8 5 13 -5 10.6
8 -5 -13 0.7 8.9
-8 5 -13 -3.1 5
8 -5 -13 -4.4 3.7
-8 -5 -13 -3.9 4.7
8 -5 13 1.7 5.6
8 -5 13 -1.9 4.4
8 5 -13 2.8 6.9
8 6 13 -3.1 10
-8 6 -13 1.1 8.2
8 -6 -13 12.3 10
8 -6 -13 -0.5 9
8 -6 13 -2.2 5
8 -6 13 10.1 7.2
8 6 -13 2.3 6.5
-8 -6 -13 8.1 8.7
-8 6 13 1.9 8.7
8 -7 -13 -1.2 8.7
8 -7 -13 1.9 6.6
-8 7 -13 -4.7 5.4
8 -7 13 -0.4 3.6
-8 7 13 -4 7.9
-8 -7 -13 -1.3 5.6
8 7 -13 -0.4 6.4
8 -7 13 -3 4.6
-8 8 -13 48 17.9
8 -8 -13 45.6 16.3
8 8 -13 19.6 12.4
-8 -8 -13 15.9 11.8
8 -8 13 39.4 13.2
-8 8 13 20.4 15.9
8 -9 -13 41.8 17.7
-8 9 -13 41.2 19
-8 9 13 56.89 23.3
8 9 -13 56.49 17.5
-8 -9 -13 33.9 14.2
8 -9 13 31.4 12.6
-8 10 -13 17.6 13.5
8 -10 -13 20 12.6
-8 -10 -13 8.9 9.2
8 10 -13 24 14.1
8 -10 13 10.5 10.6
9 0 -13 1.6 6.1
-9 0 -13 -3.3 4.8
9 0 13 -0.9 7.9
9 0 -13 -1.9 3.2
-9 1 -13 1.4 6.4
9 -1 -13 1.5 7
9 1 13 10.6 11.9
9 -1 -13 1.7 4.1
9 1 -13 8.1 8.4
9 1 -13 8.3 5.3
9 -1 13 -3 5.6
-9 -1 -13 2.2 8.8
9 -2 -13 310.77 26.8
9 2 13 229.88 35.4
9 -2 -13 222.28 33.5
9 -2 -13 191.08 33.8
-9 2 -13 203.28 47.9
-9 -2 -13 247.28 39.4
-9 3 -13 5.5 9.3
9 -3 -13 1.9 7.6
9 -3 -13 6.9 12.8
9 -3 -13 25 9.8
9 3 13 5.4 10.1
-9 -3 -13 -0.5 7.1
9 -3 13 8.9 7.9
9 -3 13 2.9 8
9 3 -13 3.7 7.8
9 3 -13 6.1 4.4
-9 4 -13 16.5 11.6
9 -4 -13 17.3 14.9
9 4 13 8.6 13.4
9 -4 -13 14.8 11.3
9 -4 -13 20.2 11
9 4 -13 4.5 3.5
-9 -4 -13 20.6 14
9 4 -13 11.4 9.4
9 -4 13 4.2 8.4
9 -4 13 -2.1 5.6
9 -5 -13 37.1 13.6
9 -5 -13 34.6 15.1
9 5 13 17.7 16.2
9 -5 -13 32.6 17.2
-9 5 -13 51.19 18.8
-9 -5 -13 61.49 19.6
9 -5 13 31.5 11.9
9 5 -13 65.69 17.6
9 5 -13 52.89 7
9 -5 13 35.3 13.4
-9 6 -13 48.4 16.7
9 -6 -13 45.7 15.6
9 -6 -13 87.49 22.3
9 -6 13 35.3 12.4
9 6 -13 64.99 20.7
-9 -6 -13 21.7 13.2
9 6 -13 43.3 19.5
9 6 -13 63.99 5.8
9 -6 13 12.6 8.9
9 -7 -13 2.9 8.3
-9 7 -13 0.7 6.9
9 -7 -13 3.5 11.8
9 7 -13 0.7 7.4
9 -7 13 -2.3 6.7
9 -7 13 1.1 4.8
9 7 -13 0.1 14.3
-9 -7 -13 1.2 7.3
-9 8 -13 2 8.6
9 -8 -13 10.3 10.9
9 -8 13 2.4 8
-9 -8 -13 16 12.6
9 8 -13 11.5 11.5
9 -9 -13 57.99 17.1
-9 9 -13 49.3 23.6
9 9 -13 38.7 16.5
9 -9 13 29.1 14
-9 -9 -13 49.5 16.2
-9 9 13 9.2 30.9
10 0 -13 -3.4 3.8
10 0 -13 0.4 5.1
-10 0 -13 -0.2 5.4
10 0 13 1.1 7.7
-10 1 -13 34.4 15.6
10 -1 -13 96.59 25
10 -1 -13 49.6 23.4
10 1 13 65.29 22.1
10 -1 -13 40.4 11.8
-10 -1 -13 71.89 23.9
10 1 -13 34.4 19
10 -1 13 16.7 15.6
10 1 -13 56.19 11.8
10 1 -13 50.99 15.7
10 2 13 61.49 22.6
-10 2 -13 112.49 28.6
10 -2 -13 50.59 17.5
10 -2 -13 56.39 22.1
10 -2 -13 78.09 16.1
-10 -2 -13 20.1 12.7
10 2 -13 78.59 20.8
10 2 -13 83.69 24.1
10 2 -13 59.39 11.3
10 3 13 2.2 10.5
10 -3 -13 5.4 7.3
10 -3 -13 6.2 12.5
10 -3 -13 5.3 8.4
-10 3 -13 8.7 10.7
10 3 -13 15.4 6.4
10 -3 13 4.6 6.9
-10 -3 -13 20.2 12.8
10 3 -13 23.8 18.4
10 3 -13 4.3 8.1
10 -4 -13 12.4 10.9
-10 4 -13 30.3 18.3
10 -4 -13 24.5 12
10 4 13 32.4 18.5
10 -4 -13 -1.1 10.5
-10 -4 -13 38.4 16.4
10 -4 13 20.6 20
10 4 -13 23.6 19.4
10 4 -13 26.8 15.3
10 -4 13 23.3 12
10 5 13 4.3 16.4
10 -5 -13 3 12
10 -5 -13 3.9 10.4
-10 5 -13 1.8 8
10 -5 -13 4.3 7.6
10 -5 13 4.4 8.6
10 5 -13 -2.4 3.1
10 -5 13 4.5 7.8
-10 -5 -13 0.1 6.5
10 5 -13 7.6 16.3
10 5 -13 13.6 11.9
10 -6 -13 3 8.5
-10 6 -13 -3.9 6.3
10 -6 -13 0.1 12.3
10 -6 -13 2.8 8.1
-10 -6 -13 1.7 8.7
10 6 -13 10.4 4.8
10 -6 13 5.3 8.8
10 6 -13 27.3 14.4
10 -7 -13 75.49 19.7
-10 7 -13 64.59 21.2
10 7 -13 54.09 8
10 -7 13 14.3 11.6
-10 -7 -13 53.69 18.8
10 7 -13 40.9 17.3
-10 8 -13 -2.3 8.1
10 -8 -13 -1.2 7.1
10 -8 13 1.8 8.5
10 8 -13 2.8 8.8
-10 -8 -13 1.8 8.7
11 0 -13 -1.5 11.7
11 0 -13 0.3 4.9
11 0 13 -1.7 9.4
-11 0 -13 -3.9 6.1
11 0 -13 -6.4 4.4
11 -1 -13 3.2 7.7
-11 1 -13 17.7 15.4
11 -1 -13 -2.3 12.4
11 -1 -13 12.4 8.3
11 1 -13 1 13
11 -1 13 11.4 14.3
-11 -1 -13 18.5 12.9
11 1 -13 9.2 7
11 1 -13 -3.8 4.4
11 -2 -13 14.8 16.1
11 -2 -13 10.9 10.1
11 2 13 42.9 21.4
-11 2 -13 24.3 17
11 -2 -13 36.7 13.9
11 2 -13 17.9 8
-11 -2 -13 45 20.3
11 -2 13 6.8 12.8
11 2 -13 40.5 14.6
-11 3 -13 0.1 7.6
11 -3 -13 -0.6 12.6
11 -3 -13 5.8 9
11 -3 -13 -0.8 6.3
11 3 13 -4.4 13
11 3 -13 -3.9 6
11 -3 13 -2.4 8.8
11 3 -13 -3.9 13.9
11 3 -13 0.3 4.9
-11 -3 -13 -5.2 5.2
11 -3 13 0.3 8.2
11 4 13 10.3 19
11 -4 -13 2.2 12.9
-11 4 -13 -1 9.2
11 -4 -13 3 9
11 -4 -13 1.1 7.5
-11 -4 -13 12 11.3
11 4 -13 11.8 12
11 -4 13 9.7 9.8
11 4 -13 6.1 5.7
11 -5 -13 1.8 8.4
11 -5 -13 7.9 9.7
-11 5 -13 -6.1 6
11 5 -13 0.6 4.2
11 -5 13 -3.8 6.2
11 5 -13 6.3 11.4
-11 -5 -13 -2.2 7
-11 6 -13 19.5 13.2
11 -6 -13 36.1 15.5
11 -6 -13 17 12.8
11 6 -13 11.8 11.7
11 6 -13 9.5 5.8
-11 -6 -13 33.2 18.1
11 -6 13 21.2 12.5
11 -7 -13 36.2 16.1
-11 7 -13 25.5 15.9
11 -7 13 25.7 15.1
11 7 -13 35.7 19
-12 0 -13 -1.8 6.7
12 0 -13 -0.1 5.6
12 0 -13 9.1 10.3
12 0 13 -3.1 11.7
12 -1 -13 95.69 27.2
12 -1 -13 71.59 16.6
-12 1 -13 57.39 19.5
12 -1 -13 62.49 24.6
12 1 13 46.9 21.9
12 1 -13 69.69 23.2
-12 -1 -13 46.3 20.2
12 -1 13 34.9 19.4
12 1 -13 67.89 15.5
12 2 13 22.6 26.1
12 -2 -13 5.1 9
12 -2 -13 12.7 9.6
12 -2 -13 12 20.8
-12 2 -13 9.1 11.4
12 2 -13 27.9 16.7
-12 -2 -13 31.3 18.7
12 -2 13 17.8 16.8
12 -2 13 13.9 11.4
12 2 -13 5.3 7
12 -3 -13 28.6 14
12 -3 -13 13.2 23.5
12 -3 -13 56.79 19.3
-12 3 -13 48 21.7
12 -3 13 36.2 15.8
12 3 -13 15.8 12
-12 -3 -13 10.2 12.2
12 -3 13 26.5 25.1
12 3 -13 6.5 6.6
-12 4 -13 0.4 9.8
12 -4 -13 23.9 12.2
12 -4 -13 2.3 16.5
12 -4 -13 5.4 10.2
-12 -4 -13 15.3 15.4
12 4 -13 14.8 12.2
12 -4 13 15.9 13.1
12 4 -13 15.6 8
12 -5 -13 -3.7 7.7
12 -5 -13 8.9 11.2
-12 5 -13 -3.7 7.9
12 5 -13 2 9.4
12 -5 13 4.2 9.7
-12 -5 -13 10.1 13.6
12 5 -13 0.4 5.7
12 -6 -13 22.9 14.5
-12 6 -13 31.3 21.2
12 -6 -13 11 13.3
-12 -6 -13 34.4 20
12 -6 13 14.1 11.5
12 6 -13 44.1 19.3
13 0 -13 0.3 8.6
-13 0 -13 6 13
13 0 -13 -2.2 6.6
13 -1 -13 7 8.8
-13 1 -13 -3.7 6.5
13 1 -13 -0.6 7.7
13 -1 13 3.1 20.1
13 1 -13 6.5 8.3
-13 2 -13 -5.1 6.8
13 -2 -13 21.5 12
13 -2 -13 62.89 22.9
13 -2 13 7.7 10.7
-13 -2 -13 39 22.6
13 2 -13 16 12.2
13 2 -13 14.1 9.1
13 -3 -13 100.79 26.8
-13 3 -13 107.29 31.6
13 -3 -13 80.89 19.8
-13 -3 -13 143.89 35.9
13 3 -13 81.09 16.1
13 -3 13 85.99 22.3
13 3 -13 95.79 28.8
-13 4 -13 5.6 12.3
13 -4 -13 15.8 12.1
13 -4 -13 13.8 12.8
13 -4 13 -2.5 9
13 4 -13 10 12.3
13 4 -13 5.7 7.6
-13 -4 -13 0.4 8.5
13 -5 -13 15.7 14
13 -5 13 12.8 14.1
-14 0 -13 1.3 10.2
14 0 -13 -3.4 5.7
14 0 -13 -2.4 7.7
-14 1 -13 -1.8 10.4
14 -1 -13 0.1 7.4
14 -1 -13 -4.6 7.2
14 1 -13 0.8 9.6
14 -1 13 4.3 11.1
14 1 -13 14.3 11.6
-14 -1 -13 13.7 14.5
14 -2 -13 -3.4 7.6
14 2 -13 6 9
14 -2 13 10.6 12.8
0 0 -14 52.69 15.8
0 0 14 52.59 7.5
0 0 14 66.69 18
0 1 14 0.3 3.1
0 1 -14 9.6 8
0 -1 -14 -2.7 3.4
0 -1 14 -1.4 3.7
0 2 14 2.1 4.1
0 2 -14 -4.5 2.8
0 2 14 0.3 6.2
0 -2 14 5.5 6.4
0 -2 -14 3.4 6.2
0 3 14 -1.2 3.6
0 -3 -14 -0.9 4.9
0 3 -14 7.9 7.7
0 4 14 7 6.5
0 4 14 2.3 5.6
0 4 -14 14.3 10.3
0 -4 -14 3.4 6.5
0 -5 -14 8.4 7.9
0 5 -14 -0.4 5
0 5 14 0.4 6.2
0 5 14 3.5 6.2
0 -6 -14 8 8
0 6 14 9.7 8.8
0 6 -14 4.7 6.5
0 7 14 -2.2 5.7
0 -7 -14 1.2 8.1
0 7 14 2.4 7.9
0 7 -14 1 5.3
0 8 -14 1.4 5.6
0 -8 -14 -1.9 5.1
0 8 14 -2.4 8.1
0 8 14 1.9 8.6
0 9 -14 8.1 9.8
0 9 14 10.7 12.5
0 9 14 -4.1 9.7
0 -9 -14 9.1 8.5
0 10 -14 0.6 6.2
0 -10 -14 7.1 8.3
0 11 -14 3.9 8.3
0 11 14 3.1 29.2
1 0 14 -4.2 3.3
1 0 -14 -5.7 3
-1 0 14 0.8 2
-1 0 14 -3.3 3.1
1 0 14 -2 2.2
-1 0 -14 2.3 4.9
1 1 14 9.1 5.1
1 -1 -14 4.4 6.2
-1 1 -14 -2.4 4
-1 -1 -14 1.2 5
-1 1 14 8 4.4
1 -1 14 12.5 7.4
1 -1 14 10.7 3.5
1 1 -14 12 9.3
-1 2 -14 3.1 5.9
1 -2 -14 -0.2 4.3
1 2 14 -0.5 3.6
1 2 14 -1.9 3.8
1 2 -14 1.5 4.9
1 -2 14 0.8 4.5
-1 -2 -14 3.1 5.7
-1 2 14 -0.5 3.2
-1 2 14 1.8 5.3
-1 3 -14 932.81 62.49
1 3 14 895.81 52.49
1 -3 -14 957.4 64.99
-1 -3 -14 1036.5 67.69
-1 3 14 990.8 52.59
1 3 -14 928.41 61.99
1 -3 14 885.61 55.99
-1 4 -14 26.6 10.4
1 4 14 0.1 5.2
1 -4 -14 27.7 11
1 4 14 33.4 10.8
-1 4 14 0 5.6
1 4 -14 39.5 13.3
-1 4 14 21.1 9.3
-1 -4 -14 16.2 12
1 -5 -14 63.79 18.9
1 5 14 64.19 15.3
1 5 14 73.79 22.3
-1 5 -14 47.7 13.9
-1 5 14 70.89 15
1 5 -14 49.8 13.2
-1 -5 -14 85.89 21.5
-1 5 14 29.3 13
1 6 14 59.39 19
-1 6 -14 61.29 16.1
1 -6 -14 89.89 20.8
-1 6 14 44.6 15.1
1 6 -14 50.39 15.7
-1 -6 -14 91.89 20.9
1 7 14 70.29 17.9
-1 7 -14 101.49 22.2
1 -7 -14 58.39 19.2
1 7 14 74.69 21.2
-1 7 14 51.29 17.8
-1 -7 -14 74.59 22.7
-1 7 14 54.99 16.1
1 7 -14 75.39 17
1 8 14 -3.7 6.9
1 -8 -14 1.8 7.1
-1 8 -14 0.2 4.5
1 8 14 -2.7 8.7
1 8 -14 4.4 6.2
-1 8 14 -2.3 8.2
-1 8 14 -2.1 7.7
-1 -8 -14 1.8 6.4
1 9 14 0.5 10.1
-1 9 -14 1.9 6.6
1 -9 -14 1.6 5.9
1 9 14 10.1 12
-1 -9 -14 5.4 7.6
-1 9 14 10.4 12.5
1 9 -14 2.2 7.3
-1 9 14 2.4 11.5
1 -10 -14 -3.9 4.3
-1 10 -14 1.3 6.2
1 10 14 2.8 12.6
-1 -10 -14 1.6 6.2
1 10 -14 -1.7 5.5
1 -11 -14 3.1 7.5
-1 11 -14 -2.8 6
-1 -11 -14 9 12.4
1 11 -14 5.2 9.2
2 0 -14 80.19 20.1
-2 0 -14 74.49 19.8
2 0 14 48 14
2 -1 -14 7.2 6.9
2 1 14 -0.6 4.8
-2 1 -14 -1 4.4
-2 -1 -14 11.2 8.5
-2 1 14 5.2 7
2 1 -14 2.6 5.8
2 -1 14 3.7 6.1
-2 1 14 -1.7 2.3
2 2 14 -2.5 8.6
2 -2 -14 2.4 5.7
-2 2 -14 2.8 4.8
-2 -2 -14 2.4 5.8
-2 2 14 -0.8 3.8
2 2 -14 -2.9 3.9
2 -2 14 4.6 2.8
2 -2 14 -0.3 4.7
-2 2 14 1.7 3.8
2 3 14 98.99 23.4
-2 3 -14 130.69 25.5
2 -3 -14 74.49 17.2
2 3 -14 108.59 22.2
-2 3 14 102.09 23.4
-2 3 14 128.19 17.3
2 -3 14 121.69 20.7
2 -3 14 119.99 8.7
-2 -3 -14 99.59 19.6
2 -4 -14 245.68 37.5
2 4 14 170.38 30.7
-2 4 -14 243.38 34.8
2 4 14 224.68 27.1
-2 4 14 227.98 25.7
2 -4 14 226.08 11.8
-2 4 14 179.98 31.2
2 4 -14 246.98 34.5
2 -4 14 205.78 25.4
-2 -4 -14 177.48 30.4
2 5 14 23.7 10.2
2 -5 -14 4.7 7
-2 5 -14 7.7 7.2
-2 5 14 12 8.3
2 5 -14 7.6 8.4
-2 -5 -14 11.1 9.8
2 6 14 1.8 5.7
2 -6 -14 5.2 7.7
-2 6 -14 17.9 10.2
2 6 14 5.7 9.4
2 6 -14 11.4 8.5
-2 6 14 4.4 7
-2 -6 -14 14.6 10.3
2 7 14 8.8 9
2 7 14 8.6 9.2
-2 7 -14 4.9 7.1
2 -7 -14 21.5 11
2 7 -14 14.5 8.9
-2 7 14 24.5 15.9
-2 -7 -14 39.7 13.1
-2 7 14 13.2 10.3
2 -8 -14 9.4 8.7
2 8 14 1.4 8.3
-2 8 -14 6.7 6.9
-2 8 14 19.1 14.8
-2 8 14 3.2 8.3
-2 -8 -14 2.4 6.8
2 8 -14 0.3 4.3
2 -9 -14 24.3 11.7
2 9 14 36.7 17.6
2 9 14 4.1 12.5
-2 9 -14 18.7 11.2
-2 9 14 15.1 14
-2 -9 -14 37.8 13.5
2 9 -14 40.9 13.6
-2 9 14 21 14.8
-2 10 -14 167.68 30.3
2 10 14 121.29 29.6
2 -10 -14 129.39 22.6
-2 -10 -14 168.08 25.4
-2 10 14 112.79 33.1
2 -11 -14 3.4 6.3
2 11 14 0.8 18.3
-2 11 -14 1.6 8.3
2 11 -14 7.8 9.1
-2 -11 -14 4.5 6.6
3 0 -14 313.97 36.9
3 0 14 324.67 31.8
-3 0 -14 199.88 29.1
-3 1 -14 13.9 10.3
3 1 14 23.2 10.3
3 -1 -14 56.99 16.3
3 1 -14 28.7 12.2
-3 1 14 44.3 7.7
3 -1 14 19.4 8.9
-3 -1 -14 5.5 6.4
3 -2 -14 67.49 16.6
-3 2 -14 80.59 19.5
3 -2 14 73.39 10.3
-3 -2 -14 106.09 21.1
3 -2 14 81.99 17.5
3 2 -14 78.39 19.5
-3 2 14 98.79 13.7
-3 3 -14 18 10.1
3 -3 -14 33.4 12.4
3 3 14 -2.1 3.3
3 -3 14 16.5 5.3
-3 3 14 26.2 8.3
3 3 -14 9.3 8.7
-3 -3 -14 11.4 9.7
3 -3 14 13.7 8.8
3 4 14 2 5.1
3 -4 -14 -4.9 3.3
-3 4 -14 6 7.5
-3 4 14 -3.3 3.1
3 -4 14 4.1 3.3
3 4 -14 5.1 6.9
-3 -4 -14 4.2 7.5
-3 5 -14 15.9 8.7
3 -5 -14 2.7 6.3
3 5 14 8.6 9.8
-3 5 14 0.2 6.2
-3 5 14 4.8 7.2
-3 -5 -14 3.5 6.8
3 5 -14 13.5 7.8
3 -5 14 16.3 5.2
-3 6 -14 166.78 29.2
3 6 14 86.89 19.8
3 -6 -14 99.59 26.8
3 6 14 120.99 25.7
3 -6 14 128.09 11.9
-3 6 14 138.49 27.6
-3 -6 -14 107.19 30.1
3 6 -14 121.39 22.6
3 7 14 3.5 8.3
3 -7 -14 7 8
-3 7 -14 0.7 5.6
3 7 14 4.4 9.5
3 7 -14 25.6 10.5
-3 7 14 14 12.3
-3 -7 -14 7.4 8
-3 7 14 3.5 8.7
3 -8 -14 -2.2 5.9
3 8 14 -4.3 7.1
-3 8 -14 -4.3 3.9
3 8 14 -2.4 7.8
-3 8 14 0.6 9.8
3 8 -14 7 6.6
-3 8 14 -2.2 8.3
-3 -8 -14 1.4 6.1
-3 9 -14 -0.5 6.3
3 -9 -14 -2.1 4.9
3 9 14 1.3 11.1
3 9 -14 -0.8 4.6
-3 -9 -14 1.7 6.8
-3 9 14 -5 9.3
-3 10 -14 168.68 28.4
3 -10 -14 136.89 24.2
3 10 14 159.88 36
3 10 -14 93.39 21
-3 -10 -14 85.39 18.8
-3 10 14 78.99 24.2
3 -11 -14 -2.6 4.8
-3 11 -14 -2.4 6.9
3 11 14 -5.3 25.8
-3 -11 -14 7.4 7.2
-3 11 14 8.2 18.1
4 0 14 9.7 8.6
-4 0 -14 -0.6 4.8
4 0 -14 14.7 10.3
4 1 14 135.09 27.3
4 -1 -14 153.68 25.7
-4 1 -14 112.69 23.9
4 -1 14 113.69 23.8
-4 -1 -14 102.19 21.2
4 1 -14 79.99 19.5
-4 2 -14 2.3 6.8
4 -2 -14 35.9 13.6
4 2 -14 15.8 10.2
-4 2 14 17.3 6.7
-4 -2 -14 22 11.9
4 -2 14 24.7 10.7
-4 3 -14 -1.8 4.5
4 3 14 -0.6 4.5
4 -3 -14 9.9 8.9
-4 3 14 -2.1 3.7
4 -3 14 0.7 5.2
4 -3 14 0.8 3.3
4 3 -14 -2.8 4.8
-4 -3 -14 4.3 7.1
-4 4 -14 125.39 26.1
4 -4 -14 95.09 21.9
4 4 14 73.69 20.5
-4 4 14 52.29 12.5
4 -4 14 73.49 15.6
-4 -4 -14 58.29 18
4 4 -14 80.69 17.9
-4 5 -14 151.28 28.4
4 5 14 109.59 23.3
4 5 -14 185.48 29.8
4 -5 14 133.29 20.2
-4 5 14 128.49 21.3
4 -5 14 145.29 18.1
4 6 14 22.2 14.8
-4 6 -14 6.2 8
4 -6 -14 31 13.7
4 6 -14 7.6 7.3
-4 6 14 9.4 10
-4 -6 -14 15.8 11
4 -6 14 31.4 7.9
4 -7 -14 6 7.3
4 7 14 -3.4 9.1
-4 7 -14 -2.3 5.3
-4 7 14 5.3 9.1
4 7 -14 11.8 9.4
4 -7 14 5.3 4.6
-4 -7 -14 6.5 8.7
4 -8 -14 -5.5 3.8
4 8 14 -3 9
4 8 14 2.1 10.5
-4 8 -14 2.3 6.6
4 8 -14 -2.4 4
-4 -8 -14 -1.2 6.1
4 9 14 26.8 16.8
4 9 14 15.5 15.5
4 -9 -14 38.5 16.3
4 -9 -14 29.5 12.3
-4 9 -14 20.8 11.6
4 9 -14 63.09 18.2
-4 -9 -14 24.7 12.6
-4 9 14 36.6 17.3
4 -10 -14 33.3 12.7
-4 10 -14 28.4 13.5
4 10 14 34.4 21.3
4 10 -14 21.6 11.6
-4 -10 -14 13.8 9.8
-4 10 14 -3 11.9
4 -11 -14 15 9.6
-4 11 -14 12.4 12.3
-4 11 14 -5.4 29.2
-4 -11 -14 1.2 6.5
4 11 -14 9.6 11.9
5 0 14 87.99 21.6
-5 0 -14 82.19 21.6
5 0 -14 59.49 15.6
5 -1 -14 50.79 15.7
5 1 -14 47.1 13.8
-5 -1 -14 58.49 17.3
5 -1 14 37.2 11.9
5 -2 -14 20.5 9.7
-5 2 -14 9 8.6
5 2 14 -2 3.9
-5 -2 -14 20.3 12.5
5 -2 14 14.2 8.8
-5 3 -14 14.1 11
5 -3 -14 50.39 15.6
5 3 14 27.8 13.4
5 3 -14 41.4 14.7
5 -3 14 19.1 7.3
5 -3 14 40.9 13.5
-5 3 14 29.7 9.3
-5 -3 -14 52.99 18.7
5 4 14 178.58 31.8
-5 4 -14 250.77 38.5
5 -4 14 211.68 29.4
5 4 -14 235.78 33.2
5 -4 14 222.78 19.8
-5 4 14 248.98 27.3
-5 5 -14 101.19 23.8
5 5 14 59.29 17.6
5 -5 -14 80.29 21.8
5 -5 14 68.39 12.6
-5 5 14 60.59 14.7
-5 -5 -14 71.79 20.6
5 5 -14 64.59 18.3
5 -5 14 72.19 14.6
5 -6 -14 65.29 17.9
-5 6 -14 112.09 24.3
5 6 14 54.19 18.8
5 -6 14 65.59 12.9
-5 -6 -14 86.79 21
5 -6 14 63.29 12.3
5 6 -14 76.89 19
-5 7 -14 6.4 8.4
5 -7 -14 3 7.6
5 7 14 0.8 9.6
5 7 -14 21.1 10.3
-5 7 14 -2.9 6.6
5 -7 14 6.2 5.8
-5 -7 -14 6.3 8.3
-5 8 -14 -2.1 5.2
5 -8 -14 -0.5 5.5
5 8 14 9.2 13.8
-5 8 14 6.6 9.9
5 8 -14 2 7
5 -8 14 0.9 4.7
-5 -8 -14 -1.6 5.7
5 9 14 5.6 12.6
5 -9 -14 1.7 12.5
5 -9 -14 15.7 11.6
-5 9 -14 9.6 9.7
5 9 -14 18.2 10.7
-5 -9 -14 9.9 9.1
-5 9 14 11.8 13.6
-5 10 -14 67.09 19.8
5 -10 -14 41.1 13.9
-5 -10 -14 78.19 19
-5 10 14 39 20.8
5 10 -14 92.79 21
5 -11 -14 0.8 6.7
-5 -11 -14 -3.6 5.8
6 0 -14 50.59 17.2
-6 0 -14 17.7 10.7
6 1 14 1.7 5
6 -1 -14 22.9 11.3
-6 1 -14 20.6 13.6
6 -1 14 65.29 18.1
-6 -1 -14 11 10.3
6 1 -14 33.6 13.2
6 -2 -14 3.3 6.2
6 2 14 3.9 7.6
-6 2 -14 2.3 6.5
-6 -2 -14 4.1 7.9
6 -2 14 -1.4 4.5
6 2 -14 4 7.1
6 3 14 -3.1 4.9
6 -3 -14 -2.8 4.9
-6 3 -14 9.4 8
6 -3 14 0.8 4.7
6 3 -14 12.2 9.4
-6 -3 -14 18.6 16.5
6 -3 14 3.5 6.7
6 4 14 38.4 16.2
6 -4 -14 63.19 17.2
-6 4 -14 37 13
6 4 -14 65.89 18.4
-6 4 14 57.19 13.7
6 -4 14 44.7 10.7
-6 -4 -14 46.7 15.6
6 -4 14 48.5 14.4
6 -5 -14 -3 4.6
-6 5 -14 -1.7 5.3
6 5 14 5.2 10.6
-6 -5 -14 0.2 4.4
6 5 -14 4.4 8.4
6 -5 14 -0.4 4.1
-6 6 -14 -1.8 5.5
6 -6 -14 3.3 7.4
6 6 14 -1.7 7.1
6 -6 14 -0.4 4
-6 6 14 7 8.6
-6 -6 -14 -4.6 4.4
6 -6 14 4.9 5.6
6 6 -14 -1.2 5
6 7 14 -2.2 10.3
6 -7 -14 -5 4.5
-6 7 -14 -2.2 5.4
6 7 -14 -3.7 4.7
-6 7 14 -1.3 7.8
6 -7 14 2 4.9
-6 -7 -14 0.8 7.3
-6 8 -14 10.5 9.6
6 8 14 -4.9 10.7
6 -8 -14 15.8 11.2
6 -8 -14 4.8 10.9
6 8 -14 7.7 8.8
-6 8 14 5.8 11.4
-6 -8 -14 -2 6.4
6 -8 14 5.5 7.1
6 -9 -14 15.6 11.9
-6 9 -14 8.9 10.5
6 9 -14 7.5 10.1
6 -9 14 2.9 6.8
-6 -9 -14 2.6 7.6
6 -10 -14 0.3 7.9
-6 10 -14 14.3 11.7
6 10 -14 15.9 12
-6 10 14 3 18.5
-6 -10 -14 0.9 7.8
-7 0 -14 255.27 40.2
7 0 -14 250.37 35.9
7 1 14 1.8 6.4
-7 1 -14 5.9 7.5
7 1 -14 9 8.1
-7 2 -14 -3.4 4.8
7 -2 -14 4.1 7.2
7 2 14 3.3 9.5
7 2 -14 -4.7 3.8
-7 -2 -14 0.9 7.8
7 -2 14 3.5 6.5
7 -3 -14 111.39 24.8
-7 3 -14 131.49 27.5
7 3 14 119.99 28.6
7 -3 14 146.99 26.8
-7 -3 -14 91.39 21.4
7 -3 14 118.29 18.7
7 3 -14 114.09 25.3
7 4 14 -2.5 6.5
7 -4 -14 -3 4.9
-7 4 -14 1.8 7.1
-7 -4 -14 -3.5 4.8
7 4 -14 -2.1 4.4
7 -4 14 -1.3 4.2
7 -4 14 -1.3 4.8
-7 5 -14 200.68 33.4
7 -5 -14 241.48 36
7 5 14 231.08 53.59
7 -5 14 195.98 27
7 5 -14 235.28 35.4
7 -5 14 247.28 27.9
-7 -5 -14 228.58 35.7
7 6 14 4.9 13.1
-7 6 -14 22.5 12
7 -6 -14 23.1 13.1
7 6 -14 2.3 8.3
7 -6 14 18 9
-7 -6 -14 18 13.5
7 -6 14 4.6 5.7
-7 6 14 18.8 10.9
-7 7 -14 5.7 9.5
7 -7 -14 8.1 10.5
7 7 14 12.1 20.9
7 -7 -14 1.7 9.9
-7 -7 -14 10.5 10.6
7 7 -14 0.8 6.7
7 -7 14 17.1 8.6
-7 8 -14 24.6 14.3
7 -8 -14 39.1 15.6
7 8 -14 18.3 11.9
-7 8 14 6.2 11.8
7 -8 14 16.7 9.2
-7 -8 -14 16.3 12.8
7 -9 -14 9.9 9.8
-7 9 -14 1.2 8.7
7 -9 14 14.8 9.8
-7 9 14 9.5 15.9
7 9 -14 58.79 18.8
-7 -9 -14 13.4 12.1
7 -10 -14 -5.2 6.4
-7 10 -14 2 8.6
7 -10 14 1.1 7.5
-7 -10 -14 -1.8 6.5
-7 10 14 4.6 20.7
7 10 -14 -1.7 8.3
8 0 -14 356.56 42.8
8 0 -14 306.37 23.2
-8 0 -14 323.37 44.1
8 0 14 384.66 49.4
8 1 14 -2.9 6
8 -1 -14 3.1 4.7
8 -1 -14 7.2 8.8
-8 1 -14 -4.6 4.4
8 1 -14 -0.4 7.7
-8 -1 -14 -2.5 5
8 1 -14 5.4 3.8
8 -1 14 -2.2 6.1
-8 2 -14 3.7 11.8
8 2 14 5.6 8.8
8 -2 -14 9.5 8.2
8 -2 -14 8 6.2
-8 -2 -14 -1.3 5.9
8 2 -14 5.9 7.4
-8 3 -14 7.2 9.8
8 -3 -14 17.6 12.5
8 3 14 0.1 9.2
-8 -3 -14 14.2 13.3
8 -3 14 27.6 10.6
8 3 -14 16.1 11.7
-8 4 -14 14.2 10.3
8 -4 -14 15.8 10.8
8 4 -14 34.6 13.7
8 -4 14 24.9 12.4
-8 -4 -14 12.4 11.2
8 -4 14 26.1 10.5
8 -5 -14 8 11.6
8 5 14 -4.3 8.5
-8 5 -14 -3.3 5.2
8 -5 -14 -2.4 5.3
8 5 -14 -1.3 4.9
8 -5 14 1.6 6.5
-8 -5 -14 1.4 8.2
8 -5 14 6.5 7
8 -6 -14 11.4 14.7
-8 6 -14 22.8 13.4
8 -6 -14 28.2 13.8
-8 -6 -14 39.5 17
8 6 -14 25.9 12.9
8 -6 14 37.3 11.7
-8 7 -14 -2.3 7.1
8 -7 -14 2.7 7.9
8 -7 -14 0.5 11.3
8 -7 14 -1.7 5.9
-8 -7 -14 -1.8 6.2
8 7 -14 -2.1 6.2
-8 7 14 1.6 10.4
8 -7 14 -0.6 6.6
-8 8 -14 64.09 21.7
8 -8 -14 73.09 19.3
8 -8 14 49.8 14.6
-8 -8 -14 77.59 22.2
-8 8 14 47.7 22
8 8 -14 64.19 19.5
8 -9 -14 11.3 11.1
-8 9 -14 0.7 9.1
8 9 -14 1 9.1
-8 9 14 1.5 15.7
8 -9 14 3.8 9.2
-8 -9 -14 1 7.5
9 0 14 20.4 14.7
9 0 -14 40.4 15.9
9 0 -14 43 9.9
-9 0 -14 61.29 20.7
9 -1 -14 3.6 5.3
-9 1 -14 13.6 11.5
9 1 14 2 10.5
9 -1 -14 -1.5 5.8
9 1 -14 3.7 4.2
-9 -1 -14 1.4 7.9
9 1 -14 23.9 14.6
9 -1 14 2.3 8.1
9 -2 -14 4.8 6.1
9 2 14 -2.1 8.3
-9 2 -14 13 11
9 -2 -14 5.5 8.2
9 2 -14 2 3.9
-9 -2 -14 -2.4 6.4
9 -2 14 -2.5 6.8
9 2 -14 3.1 7.8
9 3 14 34.6 20.4
9 -3 -14 44.1 13
9 -3 -14 68.79 21.3
9 -3 -14 28.8 16.9
-9 3 -14 64.89 21.2
-9 -3 -14 72.49 21.9
9 -3 14 38.3 12.4
9 3 -14 58.09 9.5
9 -3 14 76.99 22.5
9 3 -14 59.69 16.6
9 4 14 32 20.5
-9 4 -14 40.7 16.4
9 -4 -14 33.6 15.3
9 -4 -14 51.79 22.4
9 -4 14 57.49 16.2
9 -4 14 44.5 14.9
-9 -4 -14 58.09 20.1
9 4 -14 79.59 22.2
-9 5 -14 28.6 14.6
9 -5 -14 19.5 17.7
9 -5 -14 58.59 17.2
9 -5 14 33.4 13.7
9 5 -14 68.99 20.7
9 -5 14 37.8 12.9
-9 -5 -14 26.2 15.9
9 -6 -14 5.8 13.6
9 -6 -14 51.59 17.9
-9 6 -14 25.6 15
-9 -6 -14 18.4 12.7
9 -6 14 38.7 13.5
9 6 -14 15.1 11.4
9 -7 -14 8.4 9.5
-9 7 -14 6.5 10.8
9 -7 14 0.1 7
9 7 -14 1.6 8.7
-9 -7 -14 -5.8 5.8
-9 8 -14 24 15.1
9 -8 -14 14 11.3
-9 -8 -14 31.4 15.6
9 8 -14 6.7 9.7
9 -8 14 24.6 13.1
9 -9 -14 49.5 19.1
9 -9 14 60.99 18.3
10 0 14 -4.4 8.2
10 0 -14 6.1 9.2
-10 0 -14 -6.6 6
10 0 -14 4 5.5
10 0 -14 -1.5 11
10 -1 -14 43.8 20.5
10 -1 -14 55.29 13.3
-10 1 -14 105.59 28.5
10 -1 -14 66.79 22.1
10 1 14 26.3 17.6
10 1 -14 27.4 8.6
-10 -1 -14 78.29 24
10 1 -14 46.6 21.4
10 -1 14 24.8 15.8
10 1 -14 56.89 20
10 -2 -14 8.5 9.7
10 -2 -14 8.7 16.1
-10 2 -14 -1.1 8.7
10 2 14 -0.5 12
10 -2 -14 1 5.8
10 2 -14 4.7 4.5
10 2 -14 2.1 13.4
-10 -2 -14 6.1 9
10 -2 14 4.1 9.2
10 2 -14 17.4 12.9
10 3 14 48.2 23.3
10 -3 -14 45.1 15.4
-10 3 -14 76.49 23.7
10 -3 -14 72.69 16.9
10 -3 -14 44.8 25.2
10 -3 14 -0.8 8.3
10 3 -14 33.9 7.6
10 3 -14 8 27.7
-10 -3 -14 31.3 17
10 3 -14 77.39 21.6
10 -3 14 39 13.6
10 -4 -14 2 8.4
10 4 14 -1.6 17.3
10 -4 -14 -5.1 15.7
10 -4 -14 12.8 10.6
-10 4 -14 32.6 15.7
10 4 -14 -0.1 6.4
10 -4 14 -1.4 8
10 4 -14 4.8 3.7
10 -4 14 0.6 7.6
10 4 -14 -3.6 16
-10 -4 -14 16.6 12.9
10 -5 -14 20.9 23.2
10 -5 -14 63.19 17.4
10 -5 -14 46.9 17.8
-10 5 -14 52.29 19
10 5 -14 45 18.5
10 -5 14 58.79 17.2
-10 -5 -14 54.09 20
-10 6 -14 -7.1 6.2
10 -6 -14 5.8 26.3
10 -6 -14 7.9 9.5
10 6 -14 13.6 11.4
-10 -6 -14 3.1 9.3
10 -6 14 -1.1 6.5
10 -7 -14 -5.5 8.5
-10 7 -14 5.5 12.7
10 -7 14 -5.5 6.2
10 7 -14 -2.6 7.3
-10 -7 -14 1.1 8.4
-10 8 -14 20.8 15.1
10 -8 -14 -4 7.6
10 -8 14 19 12.9
10 8 -14 6.1 10.6
-10 -8 -14 3.2 11.3
-11 0 -14 59.09 21.1
11 0 -14 26.8 23.1
11 0 -14 14 11.3
11 0 -14 37.7 11.4
11 -1 -14 -2.7 5.5
-11 1 -14 3.9 9.5
11 1 14 0.4 13.8
11 -1 -14 0.2 5.7
11 1 -14 1 9.8
11 1 -14 2.5 5
-11 -1 -14 4.9 9.3
11 -1 14 4.7 13.2
11 1 -14 -5.2 15.2
11 -2 -14 96.89 32.8
11 2 14 125.39 32.3
11 -2 -14 187.98 30.4
11 -2 -14 158.58 30.7
-11 2 -14 120.59 29.3
11 -2 14 143.29 29.8
11 2 -14 185.58 21.2
-11 -2 -14 159.38 32.2
11 -2 14 131.29 29.2
11 2 -14 202.98 37.8
-11 3 -14 -2.2 6.9
11 -3 -14 -3.2 14
11 -3 -14 13.7 10.5
11 -3 -14 -2 7.8
11 3 14 -2.2 15.1
11 -3 14 0.8 11.6
11 3 -14 0.9 7.9
11 -3 14 7.9 10
-11 -3 -14 2.2 10.1
11 3 -14 -1.8 4.2
11 -4 -14 30.5 22.1
-11 4 -14 44.3 19.1
11 -4 -14 13.2 11.5
11 -4 -14 26.8 12.7
11 -4 14 43.2 16.3
-11 -4 -14 33.1 17.4
11 4 -14 38.4 19.3
11 -5 -14 8.6 19.9
11 -5 -14 40.6 22.4
11 -5 -14 17 13.6
-11 5 -14 16.7 13
11 5 -14 11.6 5.8
11 5 -14 3.7 10.7
-11 -5 -14 15.8 17.6
11 -5 14 15.3 11.7
11 -6 -14 -2.5 7.4
11 -6 -14 -1.6 8.7
-11 6 -14 -3.4 7.8
11 -6 14 5.8 10
11 6 -14 -2.4 7.4
-11 -6 -14 -6.8 6.7
11 -7 -14 7.5 11.2
-11 7 -14 7.9 11.4
11 -7 14 -7.3 9.4
11 7 -14 -0.3 8.6
-11 -7 -14 -5.5 9.2
12 0 -14 4.2 6.9
-12 0 -14 4.4 10
12 0 14 -2 14.7
12 0 -14 5.9 9
-12 1 -14 7.1 14
12 -1 -14 -0.8 6.2
12 -1 -14 4.8 10.1
12 1 14 -2.8 20.3
12 -1 14 6.2 15.5
12 1 -14 12.1 8.5
12 1 -14 10.7 11.6
-12 -1 -14 8 11.4
12 -2 -14 2.1 7.1
12 -2 -14 -1.7 6.3
-12 2 -14 -2 7.4
-12 -2 -14 3.4 11.7
12 -2 14 -4.4 7.3
12 2 -14 -1.5 5.2
12 2 -14 -1.4 6.4
12 -3 -14 1.5 7.7
-12 3 -14 8.7 11.4
12 -3 -14 17.8 16.9
12 3 -14 -3.5 4.9
12 -3 14 1.7 9.2
-12 -3 -14 19.9 14.5
12 3 -14 -5.9 6.5
12 -4 -14 11.3 11.8
-12 4 -14 2.8 10.1
12 -4 -14 2 8.9
12 -4 14 5.9 11.9
-12 -4 -14 -0.9 9.4
12 4 -14 -5 5.8
12 4 -14 21 8.4
12 -5 -14 15.9 12.9
-12 5 -14 6.4 13.1
12 -5 -14 -0.6 9.1
12 -5 14 5.3 10.2
12 5 -14 -1 7
-12 -5 -14 -3.5 8.4
-13 0 -14 -4 8.7
13 0 -14 0.6 8.9
13 0 -14 2.2 8.2
13 -1 -14 -0.6 7.4
-13 1 -14 6.2 12.5
13 -1 -14 0.2 8.6
13 1 -14 -3.4 5.9
-13 -1 -14 5.3 11.5
-13 2 -14 38.9 23.8
13 -2 -14 -1.9 7.9
13 -2 -14 8.2 11.5
-13 -2 -14 18.1 15
13 2 -14 9.4 12.7
13 -2 14 6.1 12.1
13 2 -14 8.5 8.3
13 -3 -14 0 9.7
-13 3 -14 2.3 11
13 -3 -14 6.1 10.6
13 3 -14 1.8 10.3
13 -3 14 7.8 11.6
13 3 -14 2.1 9.9
-13 -3 -14 20.2 15.4
0 0 15 1.2 2.5
0 0 -15 4.9 8
0 1 -15 -1.7 4.7
0 1 15 0.6 5.1
0 1 15 -1.8 2.7
0 -1 15 -1.1 4.2
0 -1 -15 -4.5 3
0 2 15 328.87 24
0 2 -15 285.27 38.7
0 -2 -15 267.87 38
0 -3 -15 -4.8 3.7
0 3 15 2.2 6.6
0 3 15 2.9 4.9
0 3 -15 2.3 7.3
0 4 15 5 11.1
0 -4 -15 3.2 6.8
0 4 -15 11.3 9.2
0 4 15 2.2 5.2
0 5 15 -3 6
0 5 -15 -2 4.6
0 5 15 -0.7 5.1
0 -5 -15 0.4 3.9
0 -6 -15 130.09 25.3
0 6 -15 162.78 27.5
0 6 15 128.59 28.1
0 7 15 -4.4 5.8
0 7 15 -1.5 9.8
0 -7 -15 4.4 8.7
0 7 -15 -0.9 5
0 -8 -15 24.1 12.9
0 8 -15 38.1 13.2
0 8 15 21.2 14.6
0 9 15 2 15.1
0 -9 -15 -4.4 4.8
0 9 15 2.4 10.2
0 9 -15 2.8 6.2
0 10 -15 24.1 12.2
0 10 15 24.1 18.7
0 -10 -15 46.6 16.1
0 -11 -15 -1.8 5.7
-1 0 15 -1.6 1.4
-1 0 15 7.4 10.3
1 0 15 -0.4 5.4
1 0 -15 16.8 10.6
1 0 15 -0.6 2.6
-1 0 -15 -2 4
1 -1 -15 65.99 18.2
1 1 15 91.19 21.3
1 1 15 46.5 9.6
-1 1 -15 117.29 25.7
-1 1 15 74.99 10.4
1 -1 15 70.89 7.9
-1 1 15 54.39 14
1 1 -15 59.79 18.5
-1 -1 -15 50.59 16.5
1 -1 15 57.69 16
1 -2 -15 3.6 6.8
-1 2 -15 21.6 11
1 2 15 14.4 10.2
-1 2 15 3.8 4.3
1 2 -15 2.5 6.3
-1 -2 -15 21.9 12.5
1 -2 15 8.1 8.3
-1 3 -15 83.39 19.4
1 3 15 93.99 16.3
1 -3 -15 64.69 18.4
1 -3 15 82.09 16.3
1 3 -15 86.09 20.5
-1 3 15 83.89 14.4
-1 3 15 29.5 12.5
-1 -3 -15 106.59 24
-1 4 -15 87.39 20.1
1 4 15 54.89 25.1
1 -4 -15 108.29 23.8
1 4 15 79.39 15.6
-1 4 15 65.89 26.7
-1 4 15 74.39 15.3
1 4 -15 78.89 18.7
-1 -4 -15 72.99 20.9
1 5 15 13.8 11.8
1 -5 -15 19.4 14.2
-1 5 -15 12.7 9.1
1 5 15 14.8 9.1
-1 -5 -15 8.8 9.3
-1 5 15 2.9 6.2
1 5 -15 9.6 8.4
-1 5 15 1.9 7.1
1 -6 -15 36.4 13.3
1 6 15 -1.7 5.5
1 6 15 61.69 18.7
-1 6 -15 18.6 10.4
1 6 -15 43 14.2
-1 6 15 21.4 10.8
-1 6 15 24.5 13.9
-1 -6 -15 12.1 10.3
1 7 15 74.29 23.5
1 -7 -15 91.79 21.9
-1 7 -15 86.09 19.6
1 7 15 71.19 18.4
-1 -7 -15 113.99 24.4
1 7 -15 62.49 17.6
-1 7 15 87.79 25.6
-1 7 15 47.8 15.6
1 -8 -15 5.5 8.5
1 8 15 30.8 18.3
-1 8 -15 18.2 12.6
1 8 15 36.9 15.6
1 8 -15 25 12.2
-1 -8 -15 5.8 8.8
-1 8 15 38.3 18.7
1 -9 -15 5.1 7.4
-1 9 -15 -0.4 6.2
1 9 15 -2.8 12.8
1 9 15 -5.5 10.3
-1 9 15 13.1 13
-1 9 15 6.6 22.9
-1 -9 -15 -5.1 4.7
1 9 -15 -2.3 5.2
-1 10 -15 13 11.5
1 10 15 16.3 17.9
1 -10 -15 12.1 10
-1 10 15 -1 13.6
1 10 -15 6.7 8.8
-1 -10 -15 13 10.3
1 -11 -15 3 7.1
-1 -11 -15 -3.7 5.6
-2 0 -15 -1 5.4
2 0 -15 0.9 5.1
2 0 15 -0.9 5.5
-2 1 -15 32.9 15
2 -1 -15 13.5 9.3
2 1 -15 41.7 14.9
2 -1 15 41.6 14.9
-2 -1 -15 33 12.7
-2 1 15 32.5 6.9
2 -2 -15 90.19 22.2
2 2 15 37.2 12.5
-2 2 -15 47.1 14.8
-2 -2 -15 46.4 13.9
-2 2 15 68.39 11.5
2 2 -15 86.39 19.4
2 -2 15 94.19 18.3
-2 2 15 51.59 16.7
2 -2 15 71.39 8
-2 3 -15 186.58 32.2
2 -3 -15 226.78 34.3
2 3 15 154.38 21.6
2 3 15 170.88 29.9
-2 3 15 242.38 25.5
-2 3 15 149.88 27.4
-2 -3 -15 222.78 35.7
2 -3 15 167.48 24.8
2 3 -15 236.18 35.7
-2 4 -15 75.69 20.3
2 -4 -15 47.2 16.4
2 4 15 94.19 30.6
2 4 15 30.5 10.7
-2 4 15 59.49 13.5
-2 -4 -15 38.3 14.5
-2 4 15 17.3 12.4
2 4 -15 45 14.3
2 -5 -15 47.3 17.5
-2 5 -15 17.4 11
2 5 15 25.9 12.8
-2 5 15 45.2 13
-2 5 15 20.8 12.3
2 5 -15 43.9 14
-2 -5 -15 42.7 16.9
2 6 15 22.2 13.4
2 -6 -15 72.49 20.5
-2 6 -15 61.59 16.8
2 6 15 58.09 18.7
-2 -6 -15 15.9 11.2
-2 6 15 29.4 16.3
2 6 -15 27.2 11.3
-2 6 15 14.6 9.6
2 7 15 73.39 19.6
-2 7 -15 123.89 25.1
2 -7 -15 62.49 19.1
2 7 15 46.5 17.8
-2 7 15 54.79 18.6
-2 -7 -15 77.89 19
-2 7 15 64.19 17
2 7 -15 107.49 23.4
-2 8 -15 15.1 9.9
2 8 15 0.7 9.4
2 -8 -15 8.4 8.3
2 8 15 10.4 12.5
-2 -8 -15 14.3 11.1
-2 8 15 0.2 10.1
2 8 -15 9.9 8.9
-2 9 -15 -4.6 4.9
2 9 15 -4.2 10.4
2 -9 -15 1.3 7.6
2 9 -15 1.2 6.2
-2 -9 -15 -5.6 4.7
-2 9 15 5.4 12.6
-2 10 -15 1.8 7.6
2 -10 -15 -4.6 5.1
2 10 15 0.3 14.7
-2 -10 -15 1.6 6.9
-2 10 15 -3.8 13.7
2 10 -15 8.1 10.4
2 -11 -15 49.4 14.4
-2 -11 -15 51.89 14.6
3 0 -15 4.6 7.7
-3 0 -15 -4.8 3.7
3 0 15 6 7.1
3 -1 -15 -3.9 3.7
-3 1 -15 1.2 6.4
-3 -1 -15 2.7 6.1
-3 1 15 3.1 3.2
3 1 -15 3.2 6.6
3 -1 15 0.4 5.6
3 -2 -15 12.5 8.5
3 2 15 -1.4 4.5
-3 2 -15 5.8 7.3
3 -2 15 2.7 6.3
3 -2 15 -1.6 2.5
-3 -2 -15 4.3 7.5
3 2 -15 1.9 5.7
-3 2 15 5.2 4.6
-3 3 -15 14 9.8
3 3 15 18.5 12.1
3 -3 -15 26.9 12.2
3 3 -15 15.5 9.8
3 -3 15 30.1 6.2
3 -3 15 13.5 8.8
-3 -3 -15 19.2 11.5
-3 3 15 21.6 7.9
-3 4 -15 1.7 6.4
3 4 15 6 8
-3 4 15 16.5 8.2
3 -4 15 8.1 6.8
3 -4 15 10 3.9
3 4 -15 6.6 6.3
3 -5 -15 35.2 13.8
3 5 15 23.5 13
-3 5 -15 77.89 18.9
3 5 -15 53.29 15
-3 -5 -15 31.9 13.1
3 -5 15 62.89 7.8
-3 5 15 27.4 11.4
-3 6 -15 45.3 16.3
3 6 15 54.39 15.9
3 -6 -15 7.1 7.4
3 6 15 14.8 12.1
-3 -6 -15 45.3 16.2
3 6 -15 16.1 9.5
-3 6 15 5.2 6.5
3 7 15 23.8 16.3
3 -7 -15 11.2 9.4
3 7 15 19.9 12.5
-3 7 -15 24 11.8
3 7 -15 8.1 8.1
-3 -7 -15 32.8 14.4
-3 7 15 11 10.2
3 -8 -15 38.2 15.5
3 8 15 30.2 20
-3 8 -15 29.2 13.8
3 8 15 12.8 13
-3 -8 -15 34.7 15
-3 8 15 19.8 16
3 8 -15 38.7 13.9
3 -9 -15 -3.8 5.5
-3 9 -15 1.5 7.7
-3 -9 -15 8 9.6
-3 9 15 -3 10.6
3 9 -15 1.2 6.4
-3 10 -15 31.7 14.3
3 -10 -15 29.5 13
3 10 15 27.3 19.8
-3 -10 -15 18.4 12.4
3 10 -15 21.9 13.2
-3 10 15 20.3 17.8
3 -11 -15 7.9 8.7
-3 -11 -15 14.7 10.2
4 0 15 -1.7 4.4
4 0 -15 1.1 5.5
-4 0 -15 -0.3 6.6
-4 1 -15 127.29 27.7
4 1 15 82.29 24.4
4 -1 -15 93.49 21.6
-4 -1 -15 67.49 19
4 1 -15 135.49 26.8
4 -1 15 75.59 21.8
4 -2 -15 8 8.7
4 2 15 3.6 7.3
-4 2 -15 1 6.6
-4 2 15 2.9 4.6
4 2 -15 4.2 7.6
4 -2 15 7.7 8
-4 -2 -15 5.9 8.1
-4 3 -15 232.18 37.1
4 -3 -15 188.68 39.2
4 -3 15 165.48 25.4
-4 3 15 236.08 21.1
4 3 -15 203.08 31.7
4 -3 15 194.38 24.2
-4 4 -15 5.6 8.2
4 -4 -15 5.2 7
4 4 15 4.7 8.7
-4 -4 -15 -5.3 4.7
4 4 -15 10 9.5
4 -4 15 2.4 4.1
4 -4 15 -2 4.1
-4 4 15 3.2 5.4
-4 5 -15 41.8 15.5
4 -5 -15 55.79 17.8
4 5 15 22 13.1
-4 5 15 13.8 8.5
-4 -5 -15 44.4 16.7
4 -5 15 13.4 5.7
4 -5 15 25.5 9.9
4 5 -15 11.7 9.6
-4 6 -15 29.5 13.5
4 -6 -15 7.7 9.8
-4 -6 -15 19.1 12.8
-4 6 15 -2.8 5.1
4 6 -15 3.7 7
4 7 15 167.98 34.5
-4 7 -15 149.88 27.5
4 -7 -15 157.48 30
4 7 15 124.59 30.9
-4 -7 -15 162.98 29.5
4 -7 15 145.49 17.3
-4 7 15 127.39 23.8
4 7 -15 249.18 36.4
4 8 15 3.3 13.1
4 -8 -15 -2.5 5.4
-4 8 -15 14.4 9.8
4 8 15 0.3 10.2
4 8 -15 18.4 10.9
-4 -8 -15 12.4 10.4
-4 8 15 21.3 14
4 -9 -15 40.7 14.6
-4 9 -15 25.2 14.2
4 9 15 6.5 15.3
4 9 -15 16.3 11.4
-4 9 15 -1.1 11.3
-4 -9 -15 11 10.2
4 10 15 3.8 21.3
-4 10 -15 6.2 9.9
4 -10 -15 -5.1 5.9
-4 -10 -15 -0.3 6.4
-4 10 15 -1.8 14.3
4 10 -15 -1.4 7.3
5 0 -15 -0.3 5
-5 0 -15 -5.4 3.9
-5 1 -15 0.1 6.4
5 -1 -15 -7.4 3.1
5 1 15 -0.9 5.2
5 -1 15 -0.2 5.8
5 1 -15 8.4 8
-5 -1 -15 20.2 13.4
-5 2 -15 103.89 25.8
5 2 15 64.29 18.4
5 2 -15 88.19 21.5
5 -2 15 87.79 21.3
-5 3 -15 -3 4.6
5 -3 -15 4.1 7.5
5 3 15 -0.6 7.9
-5 3 15 2.5 4.7
5 -3 15 4.5 6.3
5 3 -15 -2 5.1
-5 -3 -15 6.4 9.9
5 -3 15 1 3.7
5 4 15 0.5 7.8
5 -4 -15 0.7 6.3
-5 4 -15 10.2 9.5
-5 -4 -15 6.3 10.7
5 -4 15 1.9 3.7
5 4 -15 1.1 5.9
5 -4 15 1.7 5.4
-5 4 15 -1.3 5.2
-5 5 -15 15 10.7
5 5 15 15.9 12.5
5 -5 -15 10.7 10.2
-5 -5 -15 6.9 8.1
5 5 -15 35.2 14.8
5 -5 15 8.4 7.5
5 -5 15 21.7 7.3
5 -6 -15 3.6 7.3
5 6 15 7.5 11.9
-5 6 -15 18 11.4
-5 -6 -15 5.9 8.5
5 -6 15 3.5 4.5
5 6 -15 2.1 5.8
-5 6 15 -3.4 6
5 7 15 18.6 14.5
5 -7 -15 1 6.3
-5 7 -15 -5.2 4.4
5 7 -15 -3.5 4.4
5 -7 15 -1.2 4.2
-5 -7 -15 -6.6 4.7
-5 7 15 5.2 10.4
5 8 15 -1.2 10.8
-5 8 -15 -3.8 5.3
5 -8 -15 -3.4 5.2
-5 8 15 -4.4 9.3
5 8 -15 -0.2 6.1
5 -8 15 0.6 5
-5 -8 -15 -1.2 6.3
5 9 15 5.7 14.8
5 -9 -15 -2.8 5.9
-5 9 -15 -4 6.8
5 9 -15 5.2 8.7
-5 -9 -15 -2.3 6
5 -10 -15 2 8.7
-5 10 -15 -2.8 7.7
-5 10 15 19.1 33
-5 -10 -15 1.8 7.8
5 10 -15 13.2 11
-6 0 -15 -1.7 4.6
6 0 15 -5.1 5.5
6 0 -15 -1.9 4.6
-6 1 -15 12.1 9.8
6 -1 -15 6.4 7.6
6 1 15 4.3 8.1
6 1 -15 9.4 9.9
-6 -1 -15 4 8.7
6 2 15 232.78 37.2
6 -2 -15 244.98 37.4
-6 2 -15 212.38 33.6
6 -2 15 204.68 31.3
-6 -2 -15 272.57 44.1
6 2 -15 219.28 32.9
-6 3 -15 -2.1 5.7
6 3 15 18.2 13.2
6 -3 -15 2.2 6.6
6 3 -15 27.4 13.4
6 -3 15 12.6 8.6
-6 -3 -15 7.7 9.2
6 -3 15 6.8 6
-6 4 -15 16.5 11.9
6 4 15 29.7 17
6 -4 -15 34.9 14.7
-6 4 15 27.8 10.7
6 -4 15 44.1 10.9
-6 -4 -15 40.7 16.6
6 -4 15 35.1 12.7
6 4 -15 58.59 17.6
-6 5 -15 -0.5 7.2
6 -5 -15 0.8 6.2
6 5 15 -1.5 8.1
-6 -5 -15 -1.2 6.3
6 -5 15 4.3 6.7
6 -5 15 -1.5 4
6 5 -15 3.6 6.7
-6 6 -15 81.29 21.7
6 -6 -15 93.49 23.6
6 6 15 38 20.1
6 -6 15 47.2 11.9
6 6 -15 91.69 21.5
-6 6 15 65.69 18.1
-6 -6 -15 49.8 18.9
6 -6 15 49.4 11.7
6 -7 -15 49.7 16.8
-6 7 -15 77.89 22.7
6 7 15 49.2 22
-6 -7 -15 86.89 22.3
6 7 -15 86.99 20.8
6 -7 15 82.89 15.7
-6 7 15 69.39 21.2
-6 8 -15 19.7 13.5
6 -8 -15 26.5 14.9
-6 8 15 11.8 13.6
6 -8 15 13.3 8.3
-6 -8 -15 -2.7 5.9
6 8 -15 18.8 12.5
6 9 15 -1 26
6 -9 -15 -0.5 7.1
-6 9 -15 0.2 8
-6 -9 -15 -2.9 5.8
6 -9 15 4.2 7.2
6 9 -15 6.3 10
-6 9 15 10.5 15.2
-6 10 -15 3.1 10.1
6 -10 -15 -1.7 7.2
6 10 -15 -2 7.5
-6 10 15 -2.9 20
-6 -10 -15 -1.3 7.4
7 0 15 1.4 7.6
-7 0 -15 -1.8 5.4
7 0 -15 1.2 7.2
7 1 15 18.6 14.5
-7 1 -15 -4.7 4.8
7 -1 -15 7.4 7.7
7 1 -15 7 6.2
-7 -1 -15 7.1 8.4
7 -1 15 5.5 8.3
7 -2 -15 4.1 7
7 2 15 -2.6 7.1
7 2 -15 -2 5.1
7 -2 15 -2.2 5.7
-7 -2 -15 0.1 7.5
-7 3 -15 117.19 28.2
7 3 15 71.99 21.9
7 -3 -15 72.99 21.2
7 -3 15 77.99 22.4
7 3 -15 92.89 22.5
7 -3 15 69.89 14.4
-7 -3 -15 61.09 20.8
-7 4 -15 19 13
7 4 15 33.5 23.6
7 -4 -15 8.9 10.7
-7 -4 -15 35.8 14.6
7 -4 15 13.2 9.5
7 4 -15 36.1 16.4
7 -4 15 2.4 5.6
-7 5 -15 101.39 26.1
7 5 15 57.09 23.2
7 -5 -15 44.8 15.5
-7 -5 -15 101.89 24.9
7 5 -15 57.89 18.1
7 -5 15 65.89 14.4
7 -5 15 53.79 15.4
-7 6 -15 -0.2 7
7 -6 -15 1.8 7.7
-7 -6 -15 -0.1 7.8
7 -6 15 0.4 5.5
7 -6 15 2.6 5.1
-7 6 15 12.8 10.8
7 6 -15 1.5 7.8
7 -7 -15 112.29 26.3
-7 7 -15 126.29 28.9
7 7 -15 159.18 30
-7 7 15 116.69 26
7 -7 15 141.09 21.2
-7 -7 -15 117.49 27.1
7 -8 -15 -4.5 5.9
-7 8 -15 2.7 8.7
7 8 -15 1.5 7.5
-7 -8 -15 -1.3 6.9
-7 8 15 -1.6 11.8
7 -8 15 2.5 6.9
-7 9 -15 0.7 9.4
7 -9 -15 0.7 9.1
-7 -9 -15 8 9.7
7 -9 15 -4.4 5.8
-7 9 15 -1.9 15.8
7 9 -15 -0.3 7.8
8 0 -15 2.9 6.5
8 0 15 -1.6 9.6
-8 0 -15 2.5 8.4
-8 1 -15 2.9 9.5
8 -1 -15 -5.9 4.9
8 1 15 0.2 9.8
-8 -1 -15 -4 7.7
8 1 -15 -9.1 4
8 -1 15 -0.9 7.4
8 -2 -15 127.09 28.3
8 2 15 89.39 26.7
-8 2 -15 119.69 27.3
-8 -2 -15 125.99 29.9
8 -2 15 93.49 29.9
8 2 -15 82.49 20.9
8 3 15 2.4 12.4
-8 3 -15 7.3 10
8 -3 -15 1.4 8
8 -3 15 -4.3 6.1
-8 -3 -15 8.1 11.5
8 -3 15 -4.6 5.2
8 3 -15 3.9 9.3
8 4 15 -0.1 9.9
8 -4 -15 -1.7 5.2
-8 4 -15 -5.5 5
8 4 -15 1.5 8
8 -4 15 0.9 6.6
8 -4 15 1 7.4
-8 -4 -15 -6.1 4.6
8 -5 -15 -4.2 10
-8 5 -15 14.1 13.7
8 -5 -15 18.8 13.1
8 5 -15 34.1 16.1
8 -5 15 -0.9 5.7
-8 -5 -15 -0.5 7.8
8 -5 15 6.2 8.4
8 -6 -15 18.5 12.9
8 -6 -15 22.8 15.6
-8 6 -15 17.7 14.2
-8 -6 -15 17.6 14
8 6 -15 15.4 13.9
8 -6 15 2.1 6.1
8 -7 -15 4.2 10
-8 7 -15 -0.9 8.9
-8 -7 -15 -7.9 5.7
-8 7 15 2.1 11.8
8 -7 15 6.2 7.9
-8 8 -15 3.4 9.6
8 -8 -15 3.8 9.5
-8 -8 -15 -5.9 5.8
8 8 -15 12.4 16.7
-8 8 15 2.1 14.4
8 -8 15 4.1 8
8 -9 -15 9.2 17
-8 9 15 -0.2 20.5
8 9 -15 1.6 11.6
8 -9 15 1.3 7.7
-9 0 -15 -2.1 6.4
9 0 -15 -3.7 6.7
9 0 15 0.8 8.4
9 -1 -15 40.5 18.2
-9 1 -15 66.59 21.3
9 1 15 29.7 17.2
9 -1 15 20.1 13.8
9 1 -15 7.3 9.3
-9 -1 -15 58.99 21.3
-9 2 -15 10.3 10.9
9 -2 -15 0.6 7.4
9 2 15 -4.9 18.2
9 2 -15 5.2 7.9
-9 -2 -15 -3.3 7.1
9 -2 15 -2.7 7.5
9 -3 -15 4.4 12.6
-9 3 -15 6.5 10.7
9 -3 -15 5 8.8
9 3 15 8.8 14.5
-9 -3 -15 -3.5 6.5
9 3 -15 5 9.1
9 -3 15 1.8 7.5
9 -4 -15 -1.6 15.6
9 -4 -15 -1.3 6.6
-9 4 -15 0.1 6.4
9 -4 15 -0.6 9
-9 -4 -15 -3.3 6
9 -4 15 5 8.1
9 4 -15 3.2 9.1
9 -5 -15 -1.9 14.4
-9 5 -15 10.3 10.9
9 -5 -15 -5.5 4.8
9 -5 15 1.9 6.9
-9 -5 -15 10.3 11.8
9 5 -15 -3.9 6
9 -5 15 -5.1 12.2
9 -6 -15 -1.6 14.5
-9 6 -15 4.3 9.8
9 -6 -15 6.5 10.3
9 -6 15 6.5 8.5
9 6 -15 -0.1 8.1
-9 -6 -15 -1.1 7.5
9 -7 -15 54.99 20.5
-9 7 -15 41.3 19.9
-9 -7 -15 31 17.7
9 7 -15 10.7 12
9 -7 15 28.4 12.7
9 -8 -15 0.2 8.4
-9 8 -15 19.2 14.1
9 8 -15 18.5 13.3
-9 -8 -15 5.4 10
9 -8 15 -0.8 7.5
10 0 15 -0.6 11.7
10 0 -15 1.7 5.4
-10 0 -15 11.6 11.8
10 0 -15 0.7 8.6
10 -1 -15 8.7 18.3
-10 1 -15 8.5 11.5
10 -1 -15 18 8.7
10 -1 -15 1.5 8.7
10 1 15 28.5 17.5
10 1 -15 1.4 14.4
10 1 -15 13 6.5
-10 -1 -15 23.2 17.2
10 1 -15 4.9 9.1
10 -1 15 3.2 10.9
10 2 15 1 12.8
10 -2 -15 -0.4 15.8
10 -2 -15 -3.6 4.6
-10 2 -15 14.5 14.9
10 -2 -15 -3.7 5.2
10 2 -15 0.4 3.5
10 -2 15 -0.1 6.7
10 -2 15 -0.5 9.7
10 2 -15 -6.2 5
-10 -2 -15 -4.7 5.5
10 3 15 5.2 16.2
-10 3 -15 6.3 11.2
10 -3 -15 7.9 17.5
10 -3 -15 34.6 22.5
10 -3 -15 5 11.1
-10 -3 -15 4.2 8.9
10 3 -15 16.9 12.3
10 -3 15 3 11.5
10 -3 15 4.9 8.9
10 -4 -15 -5.4 16.2
-10 4 -15 -6.5 6.8
10 -4 -15 -3.2 6.8
10 -4 15 1.8 7.5
-10 -4 -15 -1.3 6.1
10 4 -15 -0.8 7.6
10 -5 -15 -2 16
10 -5 -15 1.9 8.6
-10 5 -15 7.7 10.9
10 -5 15 7 9.2
-10 -5 -15 0.1 8.1
10 5 -15 1.7 8.3
-10 6 -15 13.2 12.2
10 -6 -15 10.8 12
-10 -6 -15 -2.8 10.2
10 -6 15 13.4 10.9
10 6 -15 14 13.2
-10 7 -15 128.79 32
10 -7 -15 129.39 32.2
10 7 -15 77.19 22.2
-10 -7 -15 104.09 28.5
10 -7 15 114.79 24.3
-11 0 -15 -2.4 7.2
11 0 -15 1.1 7
11 0 15 2.4 15
11 0 -15 -0.8 5.1
11 1 15 1.3 13.9
11 -1 -15 -1.9 7.4
11 -1 -15 -3 5
-11 1 -15 9.1 12.2
-11 -1 -15 7.6 10.7
11 1 -15 0.9 10.2
11 1 -15 0.7 5
11 -2 -15 -4.3 6.5
-11 2 -15 -2.3 7.6
11 2 15 3.3 19.7
11 -2 -15 -3.1 8.4
11 -2 15 3.8 14.7
11 2 -15 -2.4 4
11 2 -15 0.1 8.2
-11 -2 -15 2.6 8.4
11 -2 15 2.9 8.8
11 -3 -15 78.49 18.1
11 -3 -15 48.8 34.4
11 -3 -15 78.99 26.2
-11 3 -15 51.09 21.4
11 -3 15 44.9 16.2
11 3 -15 103.39 27.8
-11 -3 -15 76.29 26.5
11 3 -15 87.79 11.2
11 -4 -15 19.7 14.3
11 -4 -15 31.9 13.7
11 -4 -15 6.1 21.7
-11 4 -15 19 15
11 -4 15 35.9 15.3
-11 -4 -15 26.6 17.9
11 4 -15 9.1 11.1
11 -5 -15 21.3 14.9
-11 5 -15 26 17.1
-11 -5 -15 11 13.9
11 5 -15 1.1 8.2
11 -5 15 4 9.6
-11 6 -15 -0.2 11.3
11 -6 -15 -2.3 8
11 6 -15 1.7 10.1
11 -6 15 6.9 10.9
-11 -6 -15 1.1 9.1
12 0 -15 0.3 6.4
12 0 -15 3.7 12.2
-12 0 -15 -3.7 10.8
12 0 15 2.9 22.5
12 -1 -15 36.3 18.5
-12 1 -15 11.4 16.6
12 1 -15 24.4 16.8
-12 -1 -15 23.4 14.1
12 1 -15 29.1 10.5
12 -2 -15 53.09 21.7
-12 2 -15 81.19 31.8
12 -2 -15 70.39 17.1
-12 -2 -15 49.7 22
12 2 -15 73.39 14
12 2 -15 54.59 20.4
-12 3 -15 12.9 16.1
12 -3 -15 18.2 11.7
12 -3 -15 14 13.5
12 3 -15 7 10.3
-12 -3 -15 6.1 12.4
12 -3 15 49.4 29.5
12 -4 -15 -3.6 7.1
12 -4 -15 2.1 9.4
-12 4 -15 -3.4 9.7
12 4 -15 -4.9 7.6
12 -4 15 -1.8 9.2
-12 -4 -15 6.8 12.2
13 0 -15 -1.6 7.1
0 0 16 98.39 20.7
0 0 16 167.08 12
0 0 -16 241.78 37
0 1 16 -1.3 3.1
0 1 -16 6.3 7
0 -1 -16 -3.2 3.5
0 2 16 327.57 44.8
0 2 16 342.67 25.2
0 -2 -16 282.37 36.8
0 2 -16 398.96 39.1
0 3 -16 -0.9 5.1
0 3 16 -0.4 4.4
0 -4 -16 89.99 25.1
0 4 -16 15.2 9.8
0 4 16 20.2 9.2
0 4 16 14.9 11.3
0 5 16 2.2 8.4
0 -5 -16 -0.7 5.6
0 5 -16 4.7 7.4
0 6 16 31.6 12.6
0 6 -16 27.9 12.8
0 -6 -16 21.5 12.6
0 6 16 24.1 16.5
0 7 -16 2.6 6.2
0 7 16 -2.5 9.2
0 7 16 0.9 8
0 -7 -16 0.7 6.7
0 -8 -16 15.2 11.7
0 8 16 3.3 12
0 8 16 4.3 11.8
0 8 -16 9 9.6
0 9 -16 -4.2 6
0 -9 -16 -4.9 5.3
0 9 16 -1.5 12.8
0 -10 -16 53.19 16.5
0 10 -16 99.49 24.6
0 10 16 51.29 24.6
-1 0 16 6.9 8.6
1 0 16 5.8 9.9
-1 0 -16 30.7 13.1
-1 0 16 22.5 3.5
1 0 16 27 6.6
1 0 -16 27.9 11.7
1 1 16 -3.3 5.2
-1 1 -16 -2.9 5.1
1 -1 -16 -1.2 5.6
1 1 16 1.3 3.5
1 1 -16 -1.5 4.9
-1 -1 -16 4.1 8.2
-1 1 16 0.8 3.1
1 -1 16 1.4 2
-1 1 16 2.4 8.6
-1 2 -16 13.7 10.2
1 2 16 16.1 6.7
1 2 16 4.9 8.8
1 -2 -16 16 10.1
1 2 -16 7.2 9
-1 2 16 7.2 8.1
-1 2 16 3.8 4.7
1 -2 16 7.4 7.9
-1 -2 -16 17.4 12.6
-1 3 -16 67.39 20.1
1 3 16 65.19 13.9
1 3 -16 53.59 15.4
-1 3 16 51.19 11.8
-1 -3 -16 60.89 24.6
1 4 16 24.5 9.8
-1 4 -16 10.9 10.5
1 -4 -16 23.2 13.4
1 4 16 10.8 10.8
-1 4 16 13.6 8.1
-1 -4 -16 16.7 11.7
1 4 -16 26.6 14.7
-1 4 16 20.1 12.4
1 -5 -16 50.49 17.2
-1 5 -16 88.69 22.3
1 5 16 21.9 14.8
-1 -5 -16 10.8 9
-1 5 16 43.1 12.7
-1 5 16 37.4 16.6
1 5 -16 57.09 16.3
1 6 16 10.3 12.8
1 -6 -16 6.8 8.6
-1 6 -16 22 12.5
1 6 16 4.6 8.4
-1 6 16 10.8 12.7
-1 6 16 -1.4 5.8
1 6 -16 8.6 8.8
-1 -6 -16 17.3 10.9
1 7 16 4.9 9.6
1 -7 -16 13 9.5
-1 7 -16 -2.2 5.7
1 7 16 6.2 12.5
1 7 -16 9.2 8.3
-1 7 16 -4.1 10.2
-1 -7 -16 -4 6.7
-1 7 16 -0.7 8.5
1 8 16 -5 8.9
-1 8 -16 -2 5.6
1 8 16 5.9 14.1
1 -8 -16 -1.4 6.4
-1 -8 -16 -3.5 6.2
-1 8 16 -1.9 12.6
-1 8 16 -7 8.6
1 8 -16 3.7 7.3
1 -9 -16 -0.3 6.3
-1 9 -16 3.7 8.4
-1 -9 -16 2.5 8.3
1 9 -16 -0.1 7.7
-1 9 16 -5.4 11.4
1 10 16 31.9 22.3
-1 10 -16 8.3 10.1
1 -10 -16 8 8.8
-1 10 16 41.3 23
-1 -10 -16 17.8 12.6
1 10 -16 31.3 15.3
2 0 -16 276.07 36.5
-2 0 -16 329.97 46.3
2 0 16 283.07 20.9
2 -1 -16 183.78 30.5
-2 1 -16 173.78 33.3
2 1 16 156.48 19.2
2 -1 16 142.49 26
-2 -1 -16 176.78 32.7
2 1 -16 208.38 31.5
2 -1 16 156.38 13.3
-2 1 16 178.38 13.6
2 2 16 33.9 9.6
2 2 16 11.6 10.5
2 -2 -16 13.2 11.1
-2 2 -16 24.2 12.6
2 2 -16 27.4 12.5
2 -2 16 30.2 4.7
2 -2 16 32.6 4.7
2 -2 16 14.7 9.8
-2 2 16 28.6 8.1
-2 -2 -16 9 8.8
-2 2 16 1.2 6.5
2 3 16 12.8 8.1
2 -3 -16 21.2 12.3
2 3 16 7.6 9.4
-2 3 -16 7.5 9.3
2 3 -16 7.5 9.1
-2 3 16 5.4 10.2
-2 3 16 9.8 6.8
-2 -3 -16 -2.8 5.1
2 -3 16 12.3 8.9
2 -4 -16 5.6 8.8
-2 4 -16 22.6 13.4
2 4 16 -0.1 5.1
2 4 16 6.2 7.9
2 4 -16 -0.5 5
-2 4 16 1.4 8.3
-2 -4 -16 0.4 5.5
-2 4 16 10.3 7.7
2 5 16 3.4 10.5
2 5 16 5 8.5
2 -5 -16 9.8 8.6
-2 5 -16 -2.6 5.1
-2 -5 -16 2.2 7.1
-2 5 16 -2.2 7.1
2 5 -16 -0.3 6.1
-2 5 16 -0.9 5.8
2 -6 -16 7.9 10.4
2 6 16 -0.1 8.8
2 6 16 31.7 14.5
-2 6 -16 12.3 10.2
-2 6 16 11.4 11.5
2 6 -16 33.1 14.2
-2 -6 -16 16.2 11.5
-2 6 16 0.9 6.9
2 7 16 87.99 21.3
-2 7 -16 119.39 30.6
2 7 16 60.89 21.8
2 -7 -16 73.79 20
2 7 -16 130.69 39
-2 -7 -16 101.99 23.7
-2 7 16 68.69 22.5
-2 7 16 80.89 19.6
2 -8 -16 58.99 20.3
2 8 16 10.3 12.1
-2 8 -16 24.1 12.6
2 8 -16 37.2 14.1
-2 8 16 57.59 19.1
-2 -8 -16 51.69 18.7
-2 9 -16 18.7 12.4
2 -9 -16 19.8 11.1
2 9 16 7.8 14.8
2 9 -16 15.7 10.8
-2 -9 -16 17.6 12.4
-2 9 16 -2.8 12.9
-2 10 -16 32.7 15.9
2 -10 -16 30.4 13
-2 -10 -16 46.5 15.7
-2 10 16 14.6 19.4
2 10 -16 44 17.4
3 0 -16 82.69 21.3
-3 0 -16 44.6 15.5
3 1 16 -6.4 8.5
-3 1 -16 6.8 8.2
3 -1 -16 64.29 20
3 1 -16 7 8.8
-3 -1 -16 13.5 12.7
3 -1 16 44 13.5
3 2 16 -1 6.9
-3 2 -16 -2.8 5.7
3 2 -16 1.3 5.6
3 -2 16 1.6 5.7
3 -2 16 5.1 3.7
-3 2 16 3.5 3.9
-3 3 -16 114.49 25.8
3 3 16 82.99 22.9
3 -3 -16 182.08 32.5
-3 3 16 114.89 17
-3 -3 -16 103.09 25
3 -3 16 93.49 19.3
3 -3 16 130.59 10.4
3 3 -16 136.19 27.3
3 4 16 13.4 10.6
-3 4 -16 43.2 15.4
3 -4 -16 41.9 16.9
-3 4 16 29.9 10.7
3 -4 16 34.5 11.9
3 4 -16 28.1 12.3
3 -4 16 32.4 5
-3 -4 -16 61.69 20.3
3 5 16 -2.6 5.7
-3 5 -16 15.1 10
3 5 16 20.3 12.7
3 -5 -16 17.8 11.8
3 5 -16 15.7 10.7
-3 5 16 37.7 12.4
-3 -5 -16 22 12.7
3 6 16 28.2 13.3
-3 6 -16 15.7 11.6
3 6 16 25.5 14.7
3 -6 -16 65.09 20.6
-3 -6 -16 64.69 20.5
-3 6 16 45.6 15.1
3 6 -16 14.5 10
-3 7 -16 -4.4 4.7
3 7 16 3.1 10.5
3 -7 -16 -1.7 6.3
3 7 16 -0.2 9.9
-3 -7 -16 4.6 8.2
-3 7 16 -3.9 6.9
3 7 -16 -3.2 5
-3 8 -16 5.7 8.4
3 8 16 0.1 11.5
3 -8 -16 -2.4 7.6
-3 -8 -16 13.8 11.8
-3 8 16 18.5 14.3
3 8 -16 14 10.8
3 9 16 -1.1 13.3
3 -9 -16 -5 5.7
-3 9 -16 0.5 8.7
3 9 -16 2.7 8.1
-3 -9 -16 -4.1 5.7
-3 10 -16 -3.1 7.2
3 -10 -16 -2.4 7.3
3 10 16 6.2 19.7
-3 10 16 7.6 29.8
-3 -10 -16 -3.3 6.4
3 10 -16 -1.4 8
4 0 -16 8.2 8.5
-4 0 -16 9.1 9.3
4 0 16 16.2 14.3
-4 1 -16 121.99 26.2
4 1 16 84.89 22.8
4 -1 16 108.19 24.3
4 1 -16 92.89 20.4
-4 2 -16 0.5 5.3
4 -2 -16 1.5 7.8
4 2 -16 -5.1 4
-4 -2 -16 8.7 8.9
4 -2 16 -1.7 2.5
4 -2 16 2 7.4
-4 2 16 -1.8 3.1
-4 3 -16 149.39 27.3
4 -3 -16 91.89 21.2
4 3 16 134.49 25.5
4 -3 16 117.49 21.8
-4 -3 -16 130.79 26.4
-4 3 16 117.89 17.5
4 3 -16 117.49 25.8
-4 4 -16 -1.6 5
4 4 16 -2.4 6.1
4 -4 -16 5.8 7.7
-4 4 16 -4.8 4.1
4 -4 16 1.2 3.1
4 -4 16 0.2 5.6
4 4 -16 0.3 5.6
-4 -4 -16 3.5 9
-4 5 -16 0 6.3
4 5 16 0.4 9.7
4 -5 -16 0.5 6
4 -5 16 1.3 5.6
-4 -5 -16 -7.3 4.3
4 5 -16 -3.7 4.4
4 -5 16 -1.6 2.5
4 -6 -16 -0.9 5.9
4 6 16 2 9.9
-4 6 -16 -4 5.7
4 6 16 4.1 9.2
-4 -6 -16 3.5 8.1
-4 6 16 4.6 7.9
4 -6 16 2.7 3.3
4 6 -16 -0.6 5.3
-4 7 -16 74.39 21.2
4 7 16 45.8 18.4
4 -7 -16 59.79 18.7
4 7 16 11.7 15.9
4 7 -16 47.4 16.1
-4 7 16 49 16.1
-4 -7 -16 110.69 24.9
4 8 16 -1.9 11.4
4 -8 -16 0.5 7.9
-4 8 -16 0.3 7.5
4 8 -16 3.6 8
-4 8 16 -5.4 9.5
-4 -8 -16 0.5 6.7
4 9 16 2 16.6
-4 9 -16 3.7 9.7
4 -9 -16 15.6 11.8
4 9 -16 12.7 11.9
-4 -9 -16 17 12.1
-4 9 16 6.1 14.9
-4 10 -16 6 10.6
4 -10 -16 15.7 12.7
-4 10 16 6.8 21
-4 -10 -16 12.9 10.8
4 10 -16 5.6 9.7
-5 0 -16 50.39 18.1
5 0 -16 104.99 29.7
5 -1 -16 -2.4 6
5 1 16 -4.3 6
-5 1 -16 -2.8 5.5
-5 -1 -16 -0.2 5.2
5 1 -16 -2.2 5.4
5 2 16 16.8 10.9
-5 2 -16 12 11.7
5 -2 -16 10.3 9.4
5 2 -16 18.7 11.5
5 -2 16 28.4 8.5
-5 -2 -16 27.4 15.3
5 -2 16 4.6 7.8
5 -3 -16 26.1 14.1
5 3 16 17.5 12.4
-5 3 -16 26.7 16.1
5 -3 16 34 13.7
-5 -3 -16 9.2 9.9
5 3 -16 40.8 15.2
-5 3 16 21.7 8.1
5 -3 16 27.7 8
-5 4 -16 151.28 31.1
5 4 16 92.39 26.2
5 -4 -16 140.69 28.3
-5 4 16 130.29 20
5 -4 16 129.59 16.3
-5 -4 -16 99.99 25.1
5 -4 16 135.29 23.8
5 4 -16 185.18 32.5
5 -5 -16 -1.9 6
-5 5 -16 3.1 7.7
5 5 16 0.8 9.3
5 -5 16 5.5 6.9
5 5 -16 -2.6 5.4
-5 -5 -16 0.4 6.2
5 -5 16 1.3 3.6
5 6 16 12.9 12.6
-5 6 -16 41.6 16.9
5 -6 -16 29 16
5 6 -16 56.19 18.5
-5 6 16 21.5 12
-5 -6 -16 22.7 14.2
5 -6 16 27.8 7.9
-5 7 -16 -4.8 5.5
5 -7 -16 5.7 8.6
-5 7 16 3.2 10.9
-5 -7 -16 3.6 8.7
5 7 -16 3.1 7.6
5 -7 16 -1.6 4.1
5 8 16 9.2 15.5
-5 8 -16 6.1 9.4
5 -8 -16 14.6 12.6
5 8 -16 4.7 8.2
-5 -8 -16 18.4 13.1
-5 8 16 7.7 13.2
5 -9 -16 -2.9 6.2
-5 9 -16 -5.1 7.1
-5 -9 -16 1.6 8.4
-5 9 16 -6.2 13.7
5 9 -16 -4 6.3
6 0 -16 46 16.5
-6 0 -16 62.79 19.8
6 0 16 36.6 16.2
6 1 16 -4.2 6.5
6 -1 -16 1.4 7.1
-6 1 -16 2 7.3
6 -1 16 -2.3 6.2
6 1 -16 1.1 7.1
-6 -1 -16 4.9 8.3
6 2 16 28.8 15
6 -2 -16 87.49 21.7
-6 2 -16 65.99 26.5
6 -2 16 58.49 19.2
-6 -2 -16 46.1 16.6
6 -2 16 76.59 14.1
6 -3 -16 1.3 6.7
-6 3 -16 -1.3 6.4
6 3 16 -0.9 8.3
6 3 -16 -2.3 5.1
-6 -3 -16 9.2 10.5
6 -3 16 0.6 4.2
6 -3 16 -1.8 6.5
-6 4 -16 18.2 13.5
6 4 16 -0.8 11.2
6 -4 -16 1.8 7.6
-6 -4 -16 0.9 7.7
6 -4 16 0.4 6.4
-6 4 16 5.5 7.1
6 -4 16 0.8 4.3
6 4 -16 -0.4 5.8
-6 5 -16 -0.7 6.6
6 -5 -16 1.1 6.6
6 5 16 1.2 11.3
6 -5 16 -2.5 4.8
-6 -5 -16 -3.3 6.2
6 -5 16 1.6 4.8
6 5 -16 -5 5.2
-6 5 16 2.1 7.4
-6 6 -16 -1.1 8
6 -6 -16 9.5 10.7
6 6 16 3.4 13.1
-6 6 16 6.8 9.7
6 -6 16 2.4 5.4
6 -6 16 9 6.8
-6 -6 -16 0.1 7.6
6 6 -16 8.2 9.3
-6 7 -16 -0.8 7.1
6 -7 -16 -3.4 6.1
6 7 -16 2.1 7.8
6 -7 16 -1.2 4.8
-6 -7 -16 8.1 11
-6 7 16 -0.1 9.9
6 -8 -16 106.69 27.3
-6 8 -16 74.99 22.8
6 -8 16 83.69 15.6
6 8 -16 94.39 26.5
-6 8 16 104.19 25.9
-6 -8 -16 85.49 23.8
6 -9 -16 92.79 25.7
-6 9 -16 79.09 24.2
6 9 -16 101.59 24.5
-6 9 16 75.29 26
-6 -9 -16 69.39 19.4
7 0 16 -6.5 11.1
-7 0 -16 5.4 10.1
7 0 -16 -2.9 4.9
7 -1 -16 0.7 7.9
7 1 16 3.3 9.3
-7 1 -16 34.5 14.8
7 1 -16 -3.2 5.9
-7 -1 -16 -0.7 8.2
7 -1 16 6.9 9
7 -2 -16 -4.1 4.9
7 2 16 1.6 10.9
-7 2 -16 -3.3 5.5
-7 -2 -16 -2 6.2
7 2 -16 20.8 13.6
-7 3 -16 17.8 12
7 -3 -16 13.2 11.2
7 3 16 2.9 10.6
7 -3 16 19.6 13
7 -3 16 16.7 8.5
7 3 -16 14.7 12.1
-7 -3 -16 18 14.2
7 -4 -16 4.9 8.1
7 4 16 0.7 12
-7 4 -16 1.6 6.9
7 4 -16 -2.9 6
7 -4 16 9.7 10
7 -4 16 3.3 5.6
-7 -4 -16 2.5 7.9
7 -5 -16 23.2 15.3
-7 5 -16 16.6 14.6
7 -5 16 14.9 7.9
7 -5 16 27.1 11.9
-7 -5 -16 17.2 13.4
7 5 -16 38.5 15.9
7 -6 -16 10.3 11.1
-7 6 -16 6.8 10.5
-7 -6 -16 5.4 10
7 -6 16 1.9 5.5
7 -6 16 1.2 5.1
-7 6 16 4.9 10.3
7 6 -16 15.6 19
7 -7 -16 0.4 7.2
-7 7 -16 18.4 14.3
-7 -7 -16 35 14.9
7 -7 16 9.3 8
-7 7 16 1.9 11.3
7 7 -16 0 8.7
7 -8 -16 69.19 20.6
-7 8 -16 79.49 23.6
-7 -8 -16 63.49 20.4
7 8 -16 78.79 27.7
-7 8 16 54.99 24.1
7 -8 16 85.59 16.9
8 0 -16 381.06 48.8
-8 0 -16 370.76 53.39
8 0 16 308.67 43.2
8 -1 -16 4.4 9.4
-8 1 -16 10.4 11.1
8 1 16 24.2 16.4
8 -1 16 17 14.7
8 1 -16 6.9 9.3
-8 -1 -16 1.8 9.5
8 -2 -16 54.79 19.2
-8 2 -16 77.49 23.1
8 2 16 32.3 21.3
8 2 -16 74.59 21.4
-8 -2 -16 62.89 21
8 -2 16 51.89 14.3
8 -2 16 59.69 19.3
8 3 16 7.1 14.5
8 -3 -16 19.7 13.1
-8 3 -16 9.9 12.8
8 -3 16 8.5 7.3
8 3 -16 6.8 9.3
-8 -3 -16 4 9.7
-8 4 -16 2.1 9.7
8 -4 -16 5.7 9.2
8 4 -16 -7.6 5.1
-8 -4 -16 -3.7 6.1
8 -4 16 4.7 6.3
-8 5 -16 -7.5 6.3
8 -5 -16 0.4 8
8 -5 16 -3.2 5.2
8 5 -16 3.6 8.8
-8 -5 -16 0.5 7.3
8 -6 -16 0.3 16.2
8 -6 -16 14.8 11.1
-8 6 -16 1.2 9.8
-8 -6 -16 -4.8 8
8 -6 16 -2.3 6.7
8 6 -16 16.1 12.9
8 -7 -16 60.59 26.6
-8 7 -16 42.4 18.4
8 7 -16 72.39 23
-8 -7 -16 32.2 19.1
8 -7 16 34.1 12.8
-8 8 -16 40.8 17.5
8 -8 -16 23.4 15.9
8 -8 16 50.79 14.9
8 8 -16 25.1 15.1
-8 -8 -16 25.4 15.5
9 0 -16 41.2 17.1
-9 0 -16 62.89 21.6
9 0 16 41.1 21.9
9 -1 -16 -5.3 5.1
9 1 16 -0.5 11.2
-9 1 -16 -2.3 6.3
9 1 -16 14.1 11.6
9 -1 16 5.4 13.3
-9 -1 -16 24.1 17.4
9 2 16 24.8 18.6
-9 2 -16 46.2 20.2
9 -2 -16 8.9 10.5
-9 -2 -16 11.4 11.5
9 2 -16 1.4 8.6
9 -2 16 11.3 9.1
-9 3 -16 20 15.1
9 -3 -16 14.4 11.5
9 -3 16 6.3 8.5
9 -3 16 -3.4 8.8
-9 -3 -16 8 11
9 3 -16 8.4 10.6
9 -4 -16 76.39 27.7
9 -4 -16 35.3 17.2
-9 4 -16 18.6 13.7
-9 -4 -16 20 14.8
9 -4 16 43.2 13.7
9 4 -16 32.7 16.2
9 -5 -16 -3 16.8
9 -5 -16 -5 6
-9 5 -16 3.4 10.9
9 5 -16 0.1 9.6
-9 -5 -16 -3.1 6.7
9 -5 16 1.1 7
-9 6 -16 2 9.3
9 -6 -16 -5.9 7
9 -6 16 18.6 11.5
9 6 -16 20.5 15.6
-9 -6 -16 6.5 12.8
9 -7 -16 -6.2 6.4
-9 7 -16 9.1 12.5
-9 -7 -16 -5.2 7.1
9 -7 16 -3 7.1
9 7 -16 5.9 11.4
10 0 -16 2 8.9
-10 0 -16 11.2 13.6
10 0 16 0.2 12.4
10 1 16 3.4 16.4
10 -1 -16 1.1 7
-10 1 -16 17.3 15
10 -1 16 -4.2 11.7
10 1 -16 9.5 10.9
-10 -1 -16 1.3 8.8
-10 2 -16 -2 8
10 -2 -16 29.9 16.9
10 2 16 23.7 23
-10 -2 -16 10.7 14.1
10 -2 16 8.6 15.5
10 2 -16 7.7 9.9
10 -2 16 28.6 13
10 -3 -16 2.6 19.5
10 -3 -16 5.9 9.7
-10 3 -16 24.4 17.5
10 3 -16 14.6 13.5
-10 -3 -16 2.7 9.7
10 -3 16 -1.2 7.5
-10 4 -16 76.69 25.6
10 -4 -16 19.9 22.8
10 -4 -16 39.7 24.9
10 -4 16 19.2 12.5
10 4 -16 -1.9 8.7
-10 5 -16 -2.2 8.4
10 -5 -16 -0.2 8.5
-10 -5 -16 4.8 10.5
10 5 -16 2.8 10.2
10 -5 16 -0.2 7.7
-10 6 -16 0.7 12
10 -6 -16 3 9.3
10 -6 16 -0.3 8.4
10 6 -16 -1.3 8.2
-10 -6 -16 1.8 10.6
-11 0 -16 2.4 9.7
11 0 -16 3.6 9.2
11 0 16 0.1 16.3
11 1 16 13.9 26.8
-11 1 -16 27.1 16.9
11 1 -16 34.4 18.1
-11 -1 -16 -0.8 11.2
-11 2 -16 4.8 12.3
11 -2 -16 -5.2 6.4
11 2 -16 -1.5 8.8
-11 -2 -16 7.5 14.1
11 -2 16 -3.4 8
-11 3 -16 50.39 21.6
11 -3 -16 25.6 16
-11 -3 -16 91.39 30.8
11 -3 16 74.19 20.5
11 3 -16 14.5 12.7
-11 4 -16 56.49 23.2
11 -4 -16 61.09 21.4
-11 -4 -16 76.29 23.3
11 4 -16 101.09 30.3
-12 0 -16 5.1 11.5
12 0 -16 33.6 12.7
12 0 -16 4.7 11.4
12 -1 -16 80.49 19.7
12 -1 -16 116.79 31
-12 1 -16 83.29 25.8
12 1 -16 64.39 23.8
-12 -1 -16 87.09 29.2
-12 2 -16 6.9 12.2
12 -2 -16 0.8 9.9
12 -2 -16 7.3 9.5
12 2 -16 3.4 10.8
-12 -2 -16 -3.4 8.7
12 -2 16 -5.9 8.6
0 0 -17 8.9 10
0 0 17 0.7 2
0 0 17 2.1 8.4
0 1 17 -0.2 2.9
0 1 17 10.4 10
0 -1 17 -5 4.8
0 1 -17 1.1 6.8
0 -1 -17 -0.4 6.6
0 2 -17 65.79 20.2
0 2 17 68.29 22.2
0 -2 -17 66.29 19.8
0 -3 -17 -5.4 4.3
0 3 17 -0.6 4.4
0 3 17 -3.7 7.1
0 3 -17 3.2 8.6
0 4 17 58.59 13.5
0 -4 -17 39.3 16.6
0 4 17 52.99 20.3
0 4 -17 62.89 19.5
0 -5 -17 0.4 6
0 5 -17 6.8 9.4
0 5 17 -2.7 8.4
0 6 17 -3 10.4
0 6 17 2.2 8.8
0 6 -17 4.1 8
0 -6 -17 1.7 5.7
0 7 -17 -1.6 5.2
0 7 17 1.1 12.2
0 -7 -17 4.8 9.8
0 7 17 -3 7.8
0 8 17 5.5 12
0 8 -17 7.6 9.3
0 -8 -17 7.6 9.7
0 9 17 6.5 15.3
0 -9 -17 11.3 11.2
0 9 -17 -2.2 7.1
0 -10 -17 1.1 9.3
0 10 -17 -4.1 8.1
0 10 17 -3.6 18.4
1 0 17 -2.7 2.2
1 0 -17 -0.4 5.7
1 0 17 -1.9 5.7
-1 0 -17 4.6 8.6
-1 1 -17 102.59 24.8
1 1 17 88.59 22
1 1 17 88.09 12.8
1 -1 -17 36.7 17.1
1 -1 17 70.09 17.5
1 1 -17 64.19 18
-1 -1 -17 47.3 16.5
-1 1 17 45 17.1
-1 1 17 65.79 9.8
1 2 17 41.9 10.4
-1 2 -17 31.3 14.4
1 -2 -17 57.69 17.4
1 2 17 68.39 21.8
-1 -2 -17 61.49 20.1
1 2 -17 39.2 14.8
-1 2 17 44.8 18.5
-1 2 17 46.9 10.1
1 -2 17 21.7 11.8
1 -3 -17 66.79 19.2
1 3 17 94.09 16.7
-1 3 -17 84.49 22.5
1 3 17 70.79 19.9
-1 -3 -17 59.59 16.6
-1 3 17 96.39 22.6
1 3 -17 96.09 21.7
-1 3 17 117.79 17.5
-1 4 -17 6.4 9.6
1 -4 -17 -1.8 5.3
1 4 17 -4.5 4.4
1 4 17 3.1 10
-1 -4 -17 6.6 8.6
-1 4 17 4.9 9.2
-1 4 17 1.7 6
1 4 -17 -6.3 4
1 5 17 0.5 10.8
-1 5 -17 -3.1 6.2
1 -5 -17 -3.2 4.8
1 5 17 -0.8 6.3
-1 5 17 4.4 9.8
1 5 -17 -4.5 4.4
-1 -5 -17 -5.7 4.3
-1 6 -17 -1.2 5.4
1 6 17 8.3 9.6
1 -6 -17 3.9 8.2
1 6 17 20.3 17.2
1 6 -17 6.9 8.7
-1 -6 -17 -0.4 6.4
-1 6 17 5.1 7.9
-1 6 17 -0.2 9.9
1 7 17 110.49 29.4
1 -7 -17 170.78 33.5
-1 7 -17 156.48 32.4
-1 -7 -17 151.68 30.8
-1 7 17 103.89 29.6
1 7 -17 142.59 29.7
-1 7 17 111.29 24
-1 8 -17 73.59 21.7
1 8 17 27.7 16.7
1 -8 -17 35.6 17.8
1 8 -17 80.29 21.3
-1 -8 -17 68.69 21.6
-1 8 17 55.69 21.2
1 -9 -17 40.9 17.1
-1 9 -17 42.2 17.7
1 9 17 19.3 17.7
1 9 -17 69.09 20.1
-1 -9 -17 23.4 14.4
-1 9 17 24.8 18.5
1 -10 -17 10.4 11.5
-1 10 -17 0.8 8.8
1 10 -17 0.1 9.4
-1 -10 -17 3 8.8
-1 10 17 14.9 22.2
2 0 17 -0.4 3.3
2 0 17 -0.8 6.6
2 0 -17 -3.2 6.7
2 1 17 60.89 20
2 -1 -17 65.49 20.4
-2 1 -17 87.49 23.3
2 -1 17 71.69 9.3
-2 1 17 84.19 9.8
-2 -1 -17 78.39 22.2
2 1 -17 72.69 21.9
-2 2 -17 68.79 19.6
2 -2 -17 75.39 19.3
2 2 17 66.19 19.2
2 2 17 71.29 14.1
-2 -2 -17 78.39 21.3
-2 2 17 72.39 12
2 2 -17 108.29 26
2 3 17 0.2 5
2 -3 -17 -1.8 6.7
-2 3 -17 0.4 6.1
2 3 17 7.1 8.7
2 -3 17 -3.2 4.7
-2 -3 -17 -2.7 4.7
2 3 -17 -0.9 6.5
-2 3 17 4.9 7.8
-2 3 17 -0.5 4.3
-2 4 -17 5 8.4
2 4 17 0.3 7.1
2 4 17 4.9 11.8
2 -4 -17 -1.9 5.2
-2 4 17 5.4 6.6
-2 -4 -17 7.8 8.5
2 4 -17 -0.5 5.9
-2 4 17 -2.5 6.5
-2 5 -17 2.1 8.2
2 5 17 3.2 10.7
2 -5 -17 10.3 11.2
2 5 17 -0.1 6.4
-2 -5 -17 1.8 8.5
-2 5 17 3.3 9.3
2 5 -17 5.3 7.8
2 -6 -17 0.6 8.1
2 6 17 -1.3 7.2
2 6 17 -3.3 9.5
-2 6 -17 4.2 8.6
-2 -6 -17 -4.7 5.3
-2 6 17 5.5 14.3
2 6 -17 6.2 7.7
-2 6 17 -2.7 7.4
2 -7 -17 -2.4 5.5
2 7 17 -4.2 8.8
-2 7 -17 -3.6 6.1
2 7 17 -3.5 19.7
-2 7 17 5.9 15.6
-2 7 17 -1.8 9
2 7 -17 -2.8 5.2
-2 -7 -17 5.8 8.5
-2 8 -17 -4.4 6
2 8 17 -3.3 11.3
2 -8 -17 4.2 9.1
-2 8 17 -6.4 10.6
2 8 -17 -5.5 6.1
-2 -8 -17 -2.7 6.1
-2 9 -17 17.2 13
2 9 17 3.9 15.3
2 -9 -17 0.3 8
2 9 -17 -1.5 7
-2 9 17 0 14.7
-2 -9 -17 0.9 8.2
3 0 17 1.1 7.4
3 0 -17 0.3 6.9
-3 0 -17 -3.8 4.3
-3 1 -17 5 8.4
3 -1 -17 -0.9 6
3 1 17 -0.2 8.1
-3 -1 -17 -3.2 5.9
3 1 -17 -1.3 7
3 2 17 247.68 41
3 -2 -17 303.67 40.6
-3 2 -17 209.18 34.7
-3 -2 -17 242.58 35.9
3 -2 17 269.97 17.5
-3 2 17 287.17 21
3 2 -17 315.77 43.6
3 -2 17 287.77 38.2
-3 3 -17 37.2 14.9
3 3 17 63.99 15.4
3 3 17 42.7 17.2
3 -3 -17 53.99 17
3 -3 17 42.1 5.5
3 3 -17 37.6 14.6
-3 3 17 62.49 12.8
3 -3 17 53.89 16.9
-3 -3 -17 47.1 16.8
-3 4 -17 -0.9 7.6
3 4 17 0.9 7.8
3 -4 -17 -6 3.9
-3 4 17 -3.9 4.5
3 4 -17 1.7 6.6
-3 -4 -17 0.2 6.8
3 -4 17 0.8 6.7
3 5 17 15.6 13.3
-3 5 -17 23.7 13.5
3 5 17 8 9.3
3 -5 -17 22.8 14.4
-3 -5 -17 47.6 21.1
3 5 -17 8.7 9.8
3 6 17 2.2 13.1
-3 6 -17 -1.7 6.1
3 6 17 -0.8 8.4
3 -6 -17 9 10.9
-3 -6 -17 1.9 6.7
3 6 -17 -0.3 5.8
-3 6 17 1.4 7.4
3 7 17 8.6 11.3
-3 7 -17 -2.3 6.7
3 -7 -17 3.1 10.3
-3 -7 -17 1.5 8.8
3 7 -17 1.6 8.2
-3 7 17 -1.9 9
3 -8 -17 23.9 15.6
3 8 17 0.2 15.7
-3 8 -17 40.5 14.8
-3 8 17 13.1 14
3 8 -17 44 18.2
-3 -8 -17 9.6 10.8
3 9 17 1.3 16.1
3 -9 -17 -3.1 7.5
-3 9 -17 5.4 9.9
3 9 -17 6.3 10.8
-3 9 17 -5 13.7
-3 -9 -17 -2.3 7.7
-4 0 -17 2.8 6.8
4 0 17 -2.2 6.2
4 0 -17 -5.5 4.3
4 -1 -17 11.6 11
4 1 17 13.8 12
-4 1 -17 34.7 14.3
4 1 -17 30.2 13
-4 -1 -17 50.99 17.1
4 -2 -17 18 11.6
4 2 17 12.4 10.8
-4 -2 -17 22 14.8
4 -2 17 11.8 5.4
4 -2 17 20.1 12.2
4 2 -17 3.4 9.3
4 3 17 -2.3 7.6
4 -3 -17 4.5 7.9
-4 3 -17 2.3 7.4
4 -3 17 1.3 3.1
-4 3 17 1.4 5.2
4 -3 17 -2.7 5.4
-4 -3 -17 5.1 8.5
4 3 -17 3.3 7.6
4 4 17 0.4 8.6
4 -4 -17 -4.1 5.4
-4 4 -17 -4.5 5
-4 -4 -17 -0.7 6.2
4 -4 17 6.7 8.2
-4 4 17 -3.8 4.7
4 4 -17 -2.8 5.2
4 -4 17 -1.8 2.2
4 -5 -17 0.8 7.3
-4 5 -17 0.2 7.2
4 5 17 9.4 11.9
4 5 -17 15.6 12.4
-4 -5 -17 1.1 6.8
4 -5 17 6.4 3.5
4 -6 -17 7.4 10.5
-4 6 -17 20 15.2
4 6 17 12 15.8
-4 6 17 -3 8.2
-4 -6 -17 -5.9 4.9
4 6 -17 -3.2 5.1
4 7 17 0.8 11.2
4 -7 -17 2.2 8.9
-4 7 -17 -1.1 7.2
4 7 -17 6.8 9
-4 -7 -17 10.6 12.5
4 -8 -17 3.2 9.7
-4 8 -17 -4.6 6.5
4 8 17 4.1 14.4
-4 8 17 4 12.7
-4 -8 -17 -3.5 6.2
4 8 -17 -4.5 6.4
-4 9 -17 124.89 27.8
4 -9 -17 39 16.2
-4 -9 -17 48.4 17.2
4 9 -17 44.4 17.6
-4 9 17 76.39 27
5 0 17 6.4 9.7
5 0 -17 -4.4 5
-5 0 -17 7.6 10.5
-5 1 -17 23.1 11.8
5 1 17 1.5 9.1
5 -1 -17 8.4 9.7
5 1 -17 35.7 16.3
-5 -1 -17 22.4 15.6
5 -1 17 8.2 10.2
5 2 17 51.19 20.1
5 -2 -17 53.69 18.4
-5 2 -17 58.49 18.5
5 2 -17 12.2 10.5
5 -2 17 29.4 8.7
-5 -2 -17 92.89 26.4
5 -3 -17 44.5 17.7
5 3 17 69.39 23.3
-5 3 -17 63.69 19.6
-5 -3 -17 75.89 22.7
5 3 -17 58.89 19
5 -3 17 49 10
5 -4 -17 6.8 10
5 4 17 0.8 9.5
5 -4 17 5.4 4.7
-5 -4 -17 3.7 10.2
5 -4 17 0.8 7.3
-5 4 17 8.7 7.5
-5 5 -17 29.1 20.1
5 5 17 0.4 12.7
5 -5 -17 12.4 10.6
5 -5 17 13.2 8.5
-5 -5 -17 18.8 13.4
5 -5 17 10.2 5.3
5 5 -17 -0.2 6.8
-5 5 17 2.4 8.4
-5 6 -17 2.8 9.2
5 -6 -17 -2 6.7
-5 -6 -17 -1.2 6.7
5 -6 17 -3.3 3.8
5 6 -17 4.8 8.3
-5 6 17 -1.4 8
5 7 17 89.39 26.3
5 -7 -17 109.59 24.9
-5 7 -17 68.29 22.5
-5 7 17 83.89 22.6
5 7 -17 70.59 21.2
-5 -7 -17 81.69 23.6
5 8 17 36.9 21.1
5 -8 -17 31.6 14.4
-5 8 -17 33.1 17.2
-5 8 17 53.29 20.7
5 8 -17 10.6 10
-5 -8 -17 42.7 18.5
-5 9 -17 28.9 17.7
5 9 -17 40.9 17.7
-5 9 17 11.3 22.4
6 0 17 -1.4 8.3
6 0 -17 5.9 9.2
-6 0 -17 7.3 8.4
-6 1 -17 -2.8 6.2
6 -1 -17 -4.3 4.4
6 1 17 11 12.4
-6 -1 -17 -3.4 6.5
6 -1 17 1.4 8.3
6 1 -17 -1.9 7.6
6 -2 -17 3.2 8.9
6 2 17 3.3 10.7
-6 2 -17 16.8 11.7
6 2 -17 -5.3 5.4
6 -2 17 7.9 6.7
6 -2 17 -3.5 8.1
-6 -2 -17 -2.4 5.5
6 -3 -17 35 15.6
6 3 17 4 10.8
-6 3 -17 12.9 11.8
6 -3 17 13.1 10.7
6 3 -17 6.1 9.4
-6 -3 -17 23.9 12
6 -3 17 16.8 7.3
6 -4 -17 -7.2 5.1
-6 4 -17 -5.6 5
6 4 17 -3.6 10.2
6 -4 17 4.4 8.5
-6 -4 -17 4.2 9.5
6 4 -17 -2.1 5.2
6 -4 17 2.2 4.5
-6 5 -17 7 12.1
6 5 17 4.4 13.1
6 -5 -17 2.6 9.1
-6 5 17 1.9 7.9
-6 -5 -17 3.5 8.8
6 -5 17 0 10.5
6 5 -17 4.4 8.2
6 -5 17 9.4 6.4
-6 6 -17 4.8 9.3
6 -6 -17 4.9 9.6
-6 -6 -17 -6.7 5.5
6 -6 17 0.3 4.5
6 6 -17 1.2 7.7
-6 6 17 7.6 11
-6 7 -17 11 13.1
6 -7 -17 29.4 14.4
6 7 -17 13 11.8
-6 -7 -17 8.5 12.4
6 -7 17 20.5 8.5
-6 7 17 0.9 11.4
-6 8 -17 -4.3 7.5
-6 8 17 0.7 19
6 8 -17 7.7 10
6 -8 17 2.6 6.9
-7 0 -17 -1.3 5.3
7 0 -17 8.5 8.3
7 0 17 12.5 13.2
7 -1 -17 64.79 21.2
-7 1 -17 25.2 14
7 1 17 18.6 14.4
-7 -1 -17 26.5 14.4
7 1 -17 55.99 19.2
7 -1 17 15.3 14.5
7 -2 -17 -0.2 7.1
-7 2 -17 0.4 7.9
7 2 17 -4.3 10.7
-7 -2 -17 -4.6 5.7
7 -2 17 6.9 6.8
7 -2 17 7.8 11
7 2 -17 -0.9 6.7
7 -3 -17 26.8 15.2
-7 3 -17 20.6 15.3
7 3 17 16 14.5
7 3 -17 26.2 14.3
-7 -3 -17 16.7 13.1
7 -3 17 47 12.4
7 4 17 6.7 19.1
-7 4 -17 0.8 10.8
7 -4 -17 0.7 7.6
7 -4 17 -2.8 7.4
7 -4 17 3.1 6
7 4 -17 -5.8 5.6
-7 -4 -17 -3.4 5.7
-7 5 -17 -1.5 7
7 -5 -17 9.4 10.8
-7 -5 -17 10.8 11.3
7 5 -17 -2.2 7
7 -5 17 -1.8 5.1
7 -6 -17 9.6 10.4
-7 6 -17 2.1 9.7
-7 6 17 10.5 13.4
-7 -6 -17 -1.5 8.1
7 -6 17 6.8 7
7 6 -17 5.5 9.1
-7 7 -17 -2.8 8.2
7 -7 -17 0.6 11.4
-7 -7 -17 -5.5 14
-7 7 17 -5.1 12.6
7 7 -17 -2.8 6.8
7 -7 17 -0.5 6
7 -8 -17 -3.5 7.8
-7 8 -17 -5.3 8.2
7 -8 17 -0.3 10.4
7 8 -17 -2.6 7.8
8 0 17 18 15
8 0 -17 1.6 8
-8 0 -17 -2 6.5
8 -1 -17 3.3 8.1
8 1 17 -3.1 10
-8 1 -17 10.1 11.7
8 1 -17 -5.4 5.7
8 -1 17 3 11.3
-8 -1 -17 1.4 9.6
8 2 17 15.3 14.7
8 -2 -17 25.1 15.3
-8 2 -17 50.89 20.3
-8 -2 -17 57.09 22.8
8 2 -17 32.9 16.5
8 -2 17 34.3 11.8
8 -3 -17 -2.6 5.9
-8 3 -17 4.8 10.2
8 3 -17 -2.6 6.7
-8 -3 -17 0.8 8.6
8 -3 17 -2.8 8.5
8 -4 -17 5.5 10.2
-8 4 -17 1.6 9.5
8 4 -17 1.2 9.9
8 -4 17 6.3 8.8
-8 -4 -17 -7 6.1
-8 5 -17 -2.2 8.5
8 -5 -17 1.6 7.8
-8 -5 -17 2.8 10.4
8 5 -17 2.5 8.9
8 -6 -17 25.3 16.1
-8 6 -17 22.6 16.2
8 -6 17 6.4 9.3
-8 -6 -17 9.8 12.5
8 6 -17 13.9 11.6
-8 7 -17 14.6 14.8
8 -7 -17 29.1 17
-8 -7 -17 23.7 15
8 7 -17 15.6 14.2
8 -7 17 6.1 8.3
9 0 -17 0.9 7.1
-9 0 -17 3.9 10.6
9 0 17 0.4 12.4
-9 1 -17 -2.6 7
9 -1 -17 -4.3 5.6
9 1 17 2 14
-9 -1 -17 -0.2 7.8
9 1 -17 -4.3 6.4
9 -1 17 0.5 13.5
9 2 17 35.4 23
9 -2 -17 13.1 13.2
-9 2 -17 18.9 16.6
9 -2 17 21.6 17.8
9 2 -17 65.49 24.4
-9 -2 -17 32.8 17.6
9 -2 17 30.6 13.2
9 -3 -17 251.37 41.7
-9 3 -17 144.19 32.2
-9 -3 -17 225.38 39.8
9 3 -17 199.08 39.2
9 -3 17 206.68 29.3
-9 4 -17 2.2 9.4
9 -4 -17 12.2 24.1
9 -4 -17 5.5 12.1
9 4 -17 -4.4 7.6
9 -4 17 -2.6 6.1
-9 -4 -17 3.7 13.8
-9 5 -17 1.8 10.5
9 -5 -17 2.6 8.7
9 -5 17 -2.9 6.1
9 5 -17 12.2 12.7
-9 -5 -17 -5.5 7.9
-9 6 -17 23.1 18.8
9 -6 -17 96.89 27.3
-9 -6 -17 64.59 24.3
9 6 -17 90.29 25.5
9 -6 17 47.2 15.4
-10 0 -17 3.6 11.8
10 0 17 -3.6 16.2
10 0 -17 1.5 8.4
10 -1 -17 -1.7 8.7
-10 1 -17 -6.9 7.5
10 1 17 -2.8 17.1
10 1 -17 -4.3 6.8
-10 2 -17 25.1 17.4
10 -2 -17 -0.1 8.3
-10 -2 -17 1.2 8.8
10 -2 17 13 10.8
10 2 -17 2.9 11.7
10 -3 -17 -4.2 6.5
-10 3 -17 2.8 11.7
-10 -3 -17 0.3 9.9
10 -3 17 -2.5 7
10 3 -17 4.3 10.5
-10 4 -17 27.7 19.9
10 -4 -17 41.8 19.4
10 4 -17 30.4 17
10 -4 17 25.4 13.3
-10 -4 -17 43.3 21.2
-11 0 -17 3.3 13.3
11 0 -17 -5.3 7.3
-11 1 -17 3.7 10.6
11 -1 -17 -4.8 6.6
11 1 -17 11 13.9
-11 -1 -17 8.5 12.4
11 -2 -17 -3.1 8.2
-11 2 -17 13.7 16.2
-11 -2 -17 -0.5 10.4
11 2 -17 1.3 10.7
11 -2 17 -5 7.8
0 0 -18 9.7 10.5
0 0 18 18.4 13.4
0 1 -18 -3.9 4.6
0 1 18 -2.5 7.2
0 1 18 -0.3 3.2
0 -1 -18 -5.8 4.1
0 -2 -18 17.4 13.1
0 2 18 16.6 15.1
0 2 -18 0.9 13.6
0 3 18 -0.2 4.9
0 -3 -18 0.1 6.1
0 3 18 12.9 12.4
0 3 -18 -3.4 4.7
0 4 18 20.2 10.1
0 4 -18 63.59 19
0 4 18 29.7 16.2
0 -4 -18 93.99 24.6
0 5 -18 -0.8 6.7
0 -5 -18 -3.7 7.2
0 5 18 0.3 7
0 5 18 3.7 12.2
0 6 18 7.1 10.4
0 6 18 -2.1 12
0 6 -18 21.8 15
0 -6 -18 9.2 9.8
0 -7 -18 -0.4 8
0 7 18 0.5 10.5
0 7 -18 -4.5 6.5
0 8 18 141.49 30.3
0 -8 -18 127.19 27.2
0 8 -18 130.49 27.6
0 9 -18 -5.5 7.6
0 -9 -18 -4.2 7.9
0 9 18 4.1 17.5
1 0 18 174.98 12.9
1 0 18 111.49 23.8
1 0 -18 189.08 33.6
-1 0 -18 178.38 35.3
1 1 18 2.5 4.6
1 -1 -18 2.4 10.3
-1 1 -18 -7.7 5.2
1 1 18 17.9 14.3
-1 1 18 2.5 3.1
1 1 -18 -0.5 6.4
-1 1 18 1.8 8.9
-1 -1 -18 2.9 8.3
1 -1 18 3.5 11.2
1 2 18 6.9 11.8
1 2 18 15.5 7.4
-1 2 -18 1.9 9.4
1 -2 -18 8.4 9.3
-1 -2 -18 4.2 7.9
1 2 -18 3.3 7.7
-1 2 18 12.3 6.1
-1 2 18 4.2 9
1 3 18 17.7 8.9
-1 3 -18 30.9 17.9
1 3 18 18.3 13.1
1 -3 -18 48.5 18.6
1 3 -18 26.2 17.8
-1 3 18 21.2 14.8
-1 3 18 25.6 9.8
-1 -3 -18 30.6 13.2
1 4 18 10.6 13.1
-1 4 -18 16.3 13.9
1 -4 -18 22 14
1 4 18 19.4 10.8
-1 4 18 10.5 14.5
1 4 -18 20.3 12.5
-1 4 18 33.3 11.4
-1 -4 -18 15.8 11.5
1 -5 -18 88.39 23.4
-1 5 -18 85.39 24.6
1 5 18 21 11.4
1 5 18 35.4 20.6
-1 5 18 21.1 13.8
-1 5 18 43.2 20.5
1 5 -18 71.09 22.2
-1 -5 -18 28.4 16.1
-1 6 -18 35.4 17.8
1 6 18 28 23.2
1 6 18 10.3 10.9
1 -6 -18 23.3 15.5
1 6 -18 24.5 13.2
-1 6 18 11.6 15.2
-1 6 18 27.5 14
-1 -6 -18 13.8 11.9
1 7 18 -3.4 10.1
1 -7 -18 5.5 9.8
-1 7 -18 -5.6 6
1 7 -18 9.8 12.5
-1 7 18 13.8 13
-1 -7 -18 8.2 10.6
1 -8 -18 0.5 9.9
-1 8 -18 1.9 8.5
1 8 18 13.5 18.5
-1 -8 -18 -2.7 7.3
-1 8 18 2.6 13.5
1 8 -18 -0.3 8.5
1 9 18 2.7 16.9
-1 9 -18 -4.3 7.9
1 -9 -18 5.6 19
-1 9 18 2.1 18
-1 -9 -18 5.5 11
1 9 -18 3.3 9.6
-2 0 -18 -3.4 6.5
2 0 18 5.8 4.5
2 0 -18 -5.1 4.3
2 0 18 -2.6 6.3
2 1 18 147.49 30.1
-2 1 -18 132.69 30.2
2 -1 -18 190.88 38
2 -1 18 132.89 10
2 -1 18 158.98 11
-2 -1 -18 96.79 24.4
2 1 -18 158.68 31.9
2 2 18 55.79 12.7
-2 2 -18 45.3 17.8
2 2 18 21 14.8
2 -2 -18 48.3 18.1
2 -2 18 21.6 12.7
-2 -2 -18 100.99 27.6
2 2 -18 28.4 15.4
-2 2 18 61.39 10.3
2 3 18 0.6 5.7
2 -3 -18 -0.4 6.8
2 3 18 -0.7 9.3
-2 3 18 2.2 4.9
-2 -3 -18 -1.9 6.7
-2 4 -18 4.3 10
2 4 18 9.4 12.7
2 -4 -18 14.7 11.7
2 4 -18 18.7 14.7
-2 4 18 31.1 11.4
-2 -4 -18 10.2 11.9
-2 4 18 5.5 10.6
2 5 18 1 11.4
2 -5 -18 -3.1 6.5
2 5 18 -1.6 6.6
-2 5 -18 -2.3 6.1
-2 -5 -18 12.3 11.9
-2 5 18 0.7 12
2 5 -18 -2.4 5.1
2 6 18 1.5 9.3
2 -6 -18 10.5 10.9
-2 6 -18 9.4 10.2
-2 -6 -18 10 11
-2 6 18 9.9 10.7
2 6 -18 0.1 7
2 -7 -18 -3.4 5.6
2 7 18 -3.4 10.9
-2 7 -18 -5.4 6.1
2 7 -18 -4.6 6.2
-2 -7 -18 -5.2 5.4
-2 7 18 6 11.3
-2 8 -18 -4.5 6.6
2 8 18 0.5 15.8
2 -8 -18 -4.1 7.1
2 8 -18 2.6 8.5
-2 8 18 1.9 13.1
-2 -8 -18 1.7 8.8
-2 9 -18 9.9 10.9
2 9 -18 -1.4 9.2
-2 9 18 -0.6 19.6
3 0 18 68.99 12.2
3 0 -18 88.99 25.2
-3 0 -18 97.39 26.4
3 0 18 57.49 22.1
3 1 18 -1.3 4.4
-3 1 -18 0.8 7.3
3 -1 -18 -3.2 5.9
3 1 18 -0.7 7.8
3 -1 18 2.6 3.7
3 -1 18 -3 7
3 1 -18 -5.7 4.8
-3 -1 -18 -1 6.3
3 2 18 29.4 15.2
3 2 18 40.1 11.9
3 -2 -18 32.5 14.5
-3 2 -18 29.4 14.2
3 -2 18 43.5 6.5
-3 -2 -18 58.39 20.8
3 -2 18 30.8 5.6
3 2 -18 64.89 18
-3 2 18 36.4 8.4
3 -3 -18 4 7.5
-3 3 -18 5 9.4
3 3 18 1.6 7.4
-3 3 18 5.5 5.4
3 -3 18 -1.7 7.3
-3 -3 -18 -3.4 6
3 3 -18 -0.1 6.4
-3 4 -18 102.79 28
3 -4 -18 95.99 24.2
3 4 18 78.29 24.7
-3 4 18 118.29 18.9
-3 -4 -18 69.79 21.8
3 4 -18 94.09 30.6
3 5 18 9.6 11.3
3 -5 -18 -3.4 5.4
3 5 18 22.7 28
3 5 -18 14.4 16.9
-3 -5 -18 21.6 14.6
3 6 18 17.3 20.6
-3 6 -18 -2.7 7.5
3 -6 -18 1.3 7.4
3 6 -18 13 12.6
-3 -6 -18 14.7 11.7
-3 6 18 22.6 12.7
-3 7 -18 14.2 12.4
3 -7 -18 -4.9 6.4
3 7 18 -1.7 11.2
3 7 -18 8.5 10.1
-3 7 18 -0.9 10.8
-3 -7 -18 3.3 8.5
3 -8 -18 14.9 14.1
3 8 18 1.8 14.3
-3 8 -18 1.1 8.9
-3 -8 -18 0.7 9.3
3 8 -18 1.5 9.6
-3 8 18 -4.3 12.5
4 0 -18 6.9 9.9
4 0 18 1.8 8.5
-4 0 -18 0.8 7.6
4 1 18 9.5 11.1
-4 1 -18 6.6 8.8
4 -1 -18 9.6 11.3
-4 -1 -18 2.9 7.4
4 -1 18 10.4 11
4 1 -18 7.8 9.4
4 2 18 -0.1 10
-4 2 -18 -2.4 6.2
4 -2 -18 2.7 9.7
4 2 -18 -2.6 5.7
-4 -2 -18 4 8.9
4 -3 -18 2.2 7.3
4 3 18 0.8 10.9
-4 3 -18 -1.9 6
4 -3 18 -1.2 7.1
-4 -3 -18 5.9 8.8
-4 3 18 3.7 5.8
4 3 -18 1.5 7.9
4 -3 18 -2.3 2.5
4 -4 -18 3 7.4
4 4 18 -2.9 10.2
4 4 18 2.3 7.9
-4 4 -18 1.7 7.1
-4 4 18 0.8 6.6
4 -4 18 -2.1 6
4 -4 18 0.4 2.1
4 4 -18 -4.8 6.2
-4 -4 -18 -5 5.3
-4 5 -18 3.4 10.4
4 5 18 -0.8 8.8
4 5 18 3.1 11.7
4 -5 -18 20.6 13.8
-4 5 18 4.7 8.8
4 5 -18 4.6 9.5
-4 -5 -18 23.7 16.8
4 -6 -18 14.4 14.4
4 6 18 2.9 11.1
-4 6 -18 7.7 9.9
-4 -6 -18 14.3 12.6
4 6 -18 14.9 12.6
-4 6 18 6.8 10.6
4 7 18 1.8 13.6
-4 7 -18 -0.9 7.4
4 -7 -18 -3 6.7
-4 7 18 -0.1 11.2
-4 -7 -18 18.4 14.7
4 7 -18 5.2 13.6
-4 8 -18 19.7 13.7
4 8 18 19.2 18.5
4 8 -18 25.7 19.6
5 0 18 27.3 17.1
5 0 -18 57.79 19.7
-5 0 -18 47.7 17.6
5 -1 -18 13.2 10.2
-5 1 -18 -3.3 7.2
5 1 18 -0.1 10.5
-5 -1 -18 -2.8 4.9
5 -1 18 3.3 9.4
5 1 -18 4.1 9.4
5 -2 -18 13.1 11.3
-5 2 -18 2 7.4
5 -2 18 27.7 8.4
-5 -2 -18 3.7 8.9
5 -2 18 1.1 8.4
5 2 -18 28.7 15.9
5 -3 -18 4.1 9.2
-5 3 -18 6.3 9.2
5 3 18 4.9 12.6
5 -3 18 15.5 12.8
-5 -3 -18 6.1 10.1
5 3 -18 9.4 10.8
5 -3 18 2.2 4.2
5 4 18 98.69 33.6
5 -4 -18 171.48 35.1
-5 4 -18 254.17 44.3
5 4 -18 228.28 37.9
-5 4 18 184.28 24.2
5 -4 18 237.18 29.7
5 -4 18 160.18 27.3
-5 -4 -18 196.08 37.1
5 -5 -18 39.1 17.9
-5 5 -18 24.2 14.1
5 5 -18 47.2 17.6
-5 5 18 -2.3 6.8
-5 -5 -18 23.5 15.6
5 -5 18 28.1 6.9
5 6 18 -0.2 12
-5 6 -18 -0.3 7.6
5 -6 -18 -2.9 6.9
-5 -6 -18 1.5 8.5
-5 6 18 4.9 10.5
5 6 -18 -0.4 7.7
5 7 18 0.3 14.4
-5 7 -18 -3.1 7.6
-5 7 18 -3.5 11.7
5 7 -18 1.5 8.3
-5 8 -18 -5.4 7.9
5 -8 -18 10.9 12.3
-5 -8 -18 -5.2 7.6
5 8 -18 6.1 10.5
6 0 -18 -2.5 7.4
-6 0 -18 12.9 12
6 0 18 10.5 14
6 -1 -18 56.89 19.4
-6 1 -18 76.79 24.7
6 1 18 33.8 17.8
-6 -1 -18 53.79 17.4
6 1 -18 42.2 17.6
6 -1 18 69.79 21.3
6 -2 -18 55.49 20.7
-6 2 -18 34.7 15.4
6 2 18 7.5 14.4
6 -2 18 37.3 10.2
6 2 -18 59.79 20.5
6 -2 18 50.89 19.4
-6 -2 -18 52.49 19.9
6 3 18 0.3 12.1
6 -3 -18 -2.9 5.8
-6 3 -18 0.5 7.7
-6 -3 -18 0.5 6.4
6 3 -18 5.4 8.4
6 -3 18 -1.9 4.2
6 4 18 -4.3 12.6
-6 4 -18 2.7 7.6
6 -4 -18 -1.5 7
-6 -4 -18 5.9 10
6 4 -18 5 9.4
6 -4 18 2.1 4.5
6 -5 -18 2.8 9
-6 5 -18 3.3 8.8
6 -5 18 4 5
-6 5 18 15 11.1
6 5 -18 -2.9 6.9
-6 -5 -18 0.7 7.4
-6 6 -18 -4.2 7
6 -6 18 1.9 4.7
6 6 -18 -0.8 8
-6 6 18 -4.2 14.5
6 -7 -18 -2.1 7.9
-6 7 -18 4.2 11.9
6 7 18 -0.8 16.2
-6 -7 -18 15.4 12.9
6 7 -18 -2.6 7
-7 0 -18 8.1 10.4
7 0 -18 2.9 9.6
7 0 18 1.9 11.6
7 -1 -18 -1.8 7.8
-7 1 -18 -1.1 6.9
7 1 18 1 12.1
-7 -1 -18 -6.6 4.9
7 -1 18 -4.4 9.5
7 1 -18 3.5 8.9
7 2 18 8.3 15.7
-7 2 -18 7.6 11.2
7 -2 -18 5.6 9.9
7 -2 18 -4.2 4.5
-7 -2 -18 0.5 9.6
7 2 -18 6.8 10.9
-7 3 -18 20.5 16.4
7 -3 -18 8 11.9
7 3 18 -2.2 13.3
-7 -3 -18 20.6 14.8
7 3 -18 -2 7.5
7 -3 18 -2.2 4.5
7 -3 18 1.3 13.7
7 -4 -18 1.6 9.3
-7 4 -18 4 9.6
7 4 -18 -6.1 6
7 -4 18 -1.7 5
-7 -4 -18 7 12.6
-7 5 -18 67.29 22.8
7 -5 18 41.5 11.8
7 5 -18 68.69 21.7
7 -6 -18 16.3 14.3
-7 6 -18 -5.3 7.6
7 -6 18 13.6 7.8
7 6 -18 2.8 9.8
-7 -6 -18 17.7 14.1
8 0 -18 23 15.3
-8 0 -18 10.9 13.3
8 0 18 24.9 18.1
-8 1 -18 8 11.6
8 1 18 10.6 15.4
8 -1 -18 10.4 12.3
8 -1 18 -0.9 12.3
-8 -1 -18 18.7 17.6
8 1 -18 9.6 12.8
-8 2 -18 -2.4 8.2
8 -2 -18 8.8 9.5
8 2 18 -4.3 14.2
-8 -2 -18 1.9 8.7
8 -2 18 -4.9 4.9
8 2 -18 6 11.4
-8 3 -18 10.7 13.7
8 -3 -18 1.1 9.2
8 3 -18 0.7 8.7
-8 -3 -18 -3.1 6.9
8 -3 18 -0.3 7.3
-8 4 -18 -1.7 10.2
8 -4 -18 -2.6 8.4
8 4 -18 -1 8.5
-8 -4 -18 26.5 15.7
8 -5 -18 -3.6 7.7
-8 5 -18 7.2 13.5
-8 -5 -18 4.7 12.7
8 5 -18 6.4 11.5
-8 6 -18 -6.7 8
8 -6 -18 6.9 11.4
-8 -6 -18 -1.4 8.8
8 6 -18 -3.6 7.7
9 0 -18 26.9 15
-9 0 -18 5.8 11.7
9 0 18 0.5 15.2
-9 1 -18 17.6 15.4
9 1 18 6.2 17.9
9 1 -18 15.2 13.8
9 -2 -18 -4.9 7.3
-9 2 -18 -2.4 7.5
9 -2 18 1.6 7.9
-9 -2 -18 2.3 10.8
9 2 -18 3.4 11.4
-9 3 -18 0.6 9
9 -3 -18 9.9 12.5
9 -3 18 1.7 8
-9 -3 -18 1.3 8.9
9 3 -18 13.1 13.2
-9 4 -18 34.2 20.5
9 -4 -18 66.59 22.7
-9 -4 -18 61.09 23.9
9 -4 18 34.4 13.6
9 4 -18 27 16.8
-10 0 -18 87.89 29.5
10 0 -18 34.6 20.5
-10 1 -18 7.3 11.3
10 -1 -18 6.3 11.6
-10 -1 -18 -1.7 9.4
10 1 -18 3 10.9
10 -2 -18 -1.5 7.5
-10 2 -18 -5.7 9.1
10 2 -18 19.2 17.1
10 -2 18 -3.9 7.5
-10 -2 -18 23 17
10 -3 -18 2.3 9.3
10 -3 18 -2.2 8.3
10 3 -18 2.3 12.1
0 0 19 3.4 9.4
0 0 -19 -3.9 5.4
0 1 -19 -0.2 8
0 1 19 -2.8 2.5
0 -1 -19 1.7 9.2
0 1 19 -3.5 9.1
0 2 -19 33 16.1
0 2 19 8.4 11.4
0 -2 -19 16.7 12.1
0 -3 -19 -1.1 6.2
0 3 19 -2.1 4.7
0 3 -19 -2.4 5.8
0 3 19 1.6 11.9
0 4 19 4.4 13.3
0 4 19 -3.7 6
0 4 -19 -1.2 6.8
0 -4 -19 7.1 9.6
0 5 19 -4.5 13.6
0 5 19 3.4 8.4
0 -5 -19 8.6 11.5
0 5 -19 -0.8 6.5
0 6 19 42.1 16.2
0 6 -19 27.6 15.4
0 -6 -19 61.09 20.8
0 7 -19 -0.9 7.5
0 -7 -19 -1.1 9.5
0 7 19 3.8 12.9
0 -8 -19 76.39 22.8
0 8 -19 113.79 28.8
-1 0 -19 -3.6 4.8
1 0 19 -2.3 7.6
1 0 19 1.5 2
1 0 -19 1.6 7.2
1 1 19 6.2 11.9
1 1 19 0.3 3.9
1 -1 -19 5.1 8.3
-1 1 -19 2.6 8.2
1 1 -19 6.2 10
-1 1 19 -1.8 2
1 -1 19 -0.2 8.1
-1 -1 -19 -0.2 6.2
1 2 19 4.5 13
-1 2 -19 2.1 8
1 2 19 2.4 5.3
1 -2 -19 5 8.5
-1 -2 -19 -1.8 5.8
-1 2 19 -1.6 3.8
-1 2 19 0.2 9
1 2 -19 7.6 10.3
1 -3 -19 13.9 12.9
1 3 19 13.7 13.5
1 3 19 5.4 7.2
-1 3 -19 39 16.9
-1 -3 -19 22.8 12
1 3 -19 19.9 14.5
-1 3 19 17.1 16.9
-1 3 19 21.1 8.8
-1 4 -19 -0.7 6.6
1 4 19 -2.6 11.9
1 -4 -19 -0.8 6.3
-1 4 19 1.1 13.5
1 4 -19 -4.4 5.9
-1 4 19 -2 6.3
-1 -4 -19 2.7 7.9
1 -5 -19 -1.1 5.6
-1 5 -19 6.2 9.6
1 5 19 -0.8 7.6
-1 -5 -19 0.5 7.7
1 5 -19 -6.1 5.3
-1 5 19 -1 7.7
1 6 19 6.9 11.3
-1 6 -19 2.9 9.6
1 -6 -19 -1.3 6.6
-1 6 19 -1.7 9.8
1 6 -19 1.9 8.2
-1 -6 -19 -3.9 6.6
1 7 19 1.4 12.5
1 -7 -19 -5.3 10.3
-1 7 -19 5.3 10.3
-1 7 19 -1.2 11.8
-1 -7 -19 2.8 13.3
1 7 -19 5.8 10.2
1 -8 -19 -6.8 7.1
-1 8 -19 0.1 8.9
-1 -8 -19 -5.7 6.8
1 8 -19 4.7 9.5
2 0 19 -3.9 8.1
2 0 19 -0.5 3.1
-2 0 -19 7.7 9.1
2 0 -19 1.1 7.4
2 -1 -19 36.2 16.2
2 1 19 -0.6 9.1
-2 1 -19 -7 4.3
2 1 -19 0.3 8.4
2 -1 19 5.8 10.2
-2 -1 -19 7.4 10.5
2 -2 -19 86.09 23.4
-2 2 -19 47.1 18.1
2 2 19 86.19 15.6
2 2 19 44.8 30.4
2 2 -19 65.69 18.4
2 -2 19 26.6 17
-2 2 19 70.69 10.9
-2 -2 -19 80.99 24
-2 3 -19 3.8 9.6
2 3 19 39.2 12.3
2 3 19 8.6 13.9
2 -3 -19 24.8 15.6
2 3 -19 14.4 11.8
-2 3 19 31.6 9.7
-2 -3 -19 18.3 12.8
2 -4 -19 -6.1 5.2
2 4 19 -2.9 12.5
-2 4 -19 -0.3 6.3
2 4 19 -2.2 6.4
-2 -4 -19 5.3 8.8
-2 4 19 -1.7 5.9
2 4 -19 1.3 7.5
2 5 19 17.9 12.6
-2 5 -19 8.5 10.5
2 -5 -19 50.39 19.1
-2 5 19 2 7.7
-2 -5 -19 14.5 12.8
2 5 -19 37.4 18.4
-2 6 -19 37.3 16.9
2 -6 -19 12.8 12.6
2 6 19 -0.2 11.8
-2 6 19 15.1 12.6
-2 -6 -19 33.9 16
2 6 -19 12.1 11.6
-2 7 -19 9.8 12.3
2 7 19 10.2 15
2 7 -19 7.9 10.8
-2 7 19 6.7 15.9
-2 8 -19 -2.9 7.9
2 -8 -19 0.7 9.7
2 8 -19 -5.9 7.5
-2 -8 -19 -2.7 7.6
3 0 -19 0.2 6.4
3 0 19 0.9 9
-3 0 -19 3.8 9.3
3 0 19 1.5 4.5
3 1 19 65.89 21.7
-3 1 -19 55.19 20.4
3 -1 -19 51.09 18.8
3 1 19 56.09 12.7
3 -1 19 83.19 25.7
-3 -1 -19 37.3 19.1
3 -1 19 62.59 9.4
3 -1 19 86.39 10.2
3 1 -19 143.19 33.1
3 -2 -19 12.1 11.5
-3 2 -19 -5.5 5.2
3 2 19 -0.5 11
3 2 19 1.8 6.4
3 -2 19 3.1 9.1
3 2 -19 4.6 9.2
-3 -2 -19 10.8 10.9
3 3 19 -0.6 11.7
-3 3 -19 10.9 13.4
3 -3 -19 -5.5 5
3 3 -19 -1.9 7.8
-3 3 19 -0.1 5
-3 -3 -19 -0.9 7.1
3 -3 19 0.7 8
3 -4 -19 11.2 14
3 4 19 -4.7 17.2
-3 4 -19 -4.6 5.2
3 4 19 7.4 9.4
-3 4 19 4.9 7.7
3 4 -19 15 13
-3 -4 -19 2.9 9.8
3 -5 -19 9.2 12.1
3 5 19 0.5 9.5
-3 5 -19 -1 7.8
-3 -5 -19 13.6 12.6
-3 5 19 -3.8 7
3 5 -19 27 16.4
3 6 19 2.5 11.3
3 -6 -19 23.6 12.2
-3 6 -19 9.1 13.3
-3 6 19 4.4 10.3
-3 -6 -19 -7.3 5.8
3 6 -19 9.1 10.7
-3 7 -19 33.3 18.3
3 -7 -19 -0.4 7
3 7 19 -0.8 17.9
-3 -7 -19 -3.9 7
3 7 -19 6.9 11
4 0 19 -4.1 9
-4 0 -19 -0.8 6.6
4 0 -19 0.5 8.7
-4 1 -19 9.5 12
4 -1 -19 -5.7 5.8
4 1 19 -0.4 10.2
-4 -1 -19 -5.3 5.7
4 1 -19 -6.3 5
4 -1 19 5.7 10.7
4 -1 19 -0.4 3.8
-4 2 -19 17.1 14
4 2 19 -0.7 12.1
4 -2 -19 1.3 7.9
-4 -2 -19 0.4 9.2
4 2 -19 -2.4 6.5
4 -2 19 -0.5 2.8
4 -2 19 3.7 9.3
-4 3 -19 7.5 11.6
4 -3 -19 3.4 9.4
4 3 19 19.2 18.7
4 3 19 -3.6 6.6
-4 -3 -19 12.4 13.1
4 3 -19 5.1 10.9
-4 4 -19 2.6 8.6
4 4 19 0.7 9.2
4 -4 -19 11.1 11.3
4 4 19 -2 13.3
-4 -4 -19 24.7 15.6
-4 4 19 21.5 9.7
4 4 -19 23.8 14.1
4 -5 -19 32.2 16.9
-4 5 -19 21.6 14.3
-4 -5 -19 42.1 17.6
-4 5 19 -3.4 7.7
4 5 -19 31.9 16.5
-4 6 -19 3.4 10.3
4 6 19 3.8 13.2
4 6 -19 9.5 12.8
4 7 19 3.8 16.4
4 -7 -19 17.6 14.2
-4 7 -19 9.7 12.4
-4 -7 -19 2.9 10.2
4 7 -19 16.6 13.9
-5 0 -19 -6.6 5
5 0 -19 -3.1 6.2
5 0 19 7.3 13.5
5 -1 -19 8.3 10.8
-5 1 -19 19.5 15.6
5 1 19 0.8 12.9
5 -1 19 4.9 11.6
5 1 -19 12.1 11.8
-5 -1 -19 15.5 12.8
-5 2 -19 3 9.4
5 -2 -19 3.9 10.4
5 2 19 3 14.8
5 -2 19 0.2 7.7
-5 -2 -19 -1.7 6.3
5 2 -19 -3.2 6.9
5 -2 19 1 10.7
5 -3 -19 -4 6.6
-5 3 -19 6.8 10.1
-5 -3 -19 -4.5 5.6
5 -3 19 -1.1 3.7
5 3 -19 -0.6 8.8
-5 4 -19 4.3 9.5
5 -4 -19 0.3 7.6
5 4 -19 -3 6.7
-5 -4 -19 -1.8 6.4
5 -4 19 -1.5 2.8
5 -5 -19 -2.2 14.8
-5 5 -19 -0.8 7.8
5 5 19 3.4 12.3
5 5 -19 6.4 10.8
5 6 19 2.2 17.1
-5 6 -19 20.9 15.9
5 -6 -19 12.2 13
5 6 -19 13.4 12
-5 -6 -19 7.6 12.6
-5 7 -19 15.6 14.7
5 -7 -19 5.3 10.8
5 7 -19 8 12.7
-5 -7 -19 8 11.8
6 0 -19 -5.4 5.9
-6 0 -19 0.8 8
6 0 19 -3.2 11.9
6 1 19 0.2 13.8
6 -1 -19 2.6 9.5
-6 1 -19 2 9.6
6 1 -19 2 9.4
6 -1 19 9.2 15
-6 -1 -19 10.6 11.6
6 2 19 19.5 17
6 -2 -19 41.2 18.8
-6 2 -19 58.99 21.8
6 -2 19 60.79 12.8
6 -2 19 41 20.4
-6 -2 -19 27 13.5
6 2 -19 58.69 19.9
6 -3 -19 1.1 8.3
-6 3 -19 -4.5 6.6
6 -3 19 8.6 6.1
-6 -3 -19 3.3 9.2
6 3 -19 1.3 8.1
-6 4 -19 4.5 9.2
6 4 -19 -6.2 7
6 -4 19 -0.3 4.5
-6 5 -19 3.9 11.4
6 -5 -19 5.9 10.3
6 5 -19 6.7 11.1
6 -5 19 0.6 5
-6 -5 -19 6.4 10.1
6 -6 -19 73.49 25
-6 6 -19 56.29 23.5
6 6 19 43.1 23.7
-6 -6 -19 100.19 28.6
6 6 -19 68.59 22.8
7 0 -19 -4.9 6
-7 0 -19 -2.2 7.8
7 0 19 -1.2 13.5
7 -1 -19 0.2 8.5
-7 1 -19 2.8 8.4
7 1 19 1.5 16.2
-7 -1 -19 -2.6 7
7 1 -19 4.3 10
7 -1 19 1 14.5
-7 2 -19 4.7 11.4
7 -2 -19 -3.7 7
7 2 19 -4.9 16.4
7 -2 19 1.3 6.2
-7 -2 -19 3.9 10.7
7 2 -19 -4.6 6.1
-7 3 -19 -7.9 6.2
7 -3 -19 -5 7.3
-7 -3 -19 0.4 10.4
7 3 -19 2.4 9.8
7 -3 19 -4.7 4.7
-7 4 -19 20.4 16.1
7 -4 -19 18.6 12.4
-7 -4 -19 3.5 11.3
7 4 -19 46.5 19.5
7 -4 19 30.8 10.8
-7 5 -19 0.5 10.8
7 -5 -19 36.4 19.1
-7 -5 -19 1.8 10
7 -5 19 2.4 9.2
7 5 -19 6.5 11.2
-8 0 -19 -5.4 8.5
8 0 -19 1.9 10.4
-8 1 -19 12.1 14.5
8 -1 -19 3.5 11.9
8 1 19 15 20.9
8 1 -19 6.8 10.6
-8 -1 -19 19.2 22.5
-8 2 -19 7.8 12.9
8 -2 -19 -2.1 7.5
8 -2 19 2.3 7.5
8 2 -19 -0.7 8.5
-8 -2 -19 22.1 17.5
8 -3 -19 0.2 8.5
-8 3 -19 10.6 14.6
-8 -3 -19 2.3 10.5
8 3 -19 -3.4 7.5
8 -3 19 0.9 6.7
8 -4 -19 2.3 9.2
-8 4 -19 -2 9.6
8 4 -19 -1.1 9.6
-8 -4 -19 1.6 12.9
-9 0 -19 2 12
9 0 -19 4.2 11.6
9 -1 -19 11 12.8
-9 1 -19 13.9 15
-9 -1 -19 9.7 14.4
9 1 -19 14.1 15.2
9 -2 -19 15.9 16.1
-9 2 -19 4.1 11.7
9 -2 19 3.4 9.2
9 2 -19 -5 7.7
-9 -2 -19 2 10.4
0 0 -20 -3.6 5.2
0 -1 -20 6.8 11
0 1 20 1.4 12.4
0 1 20 -1.7 2.3
0 1 -20 -3.9 6.1
0 2 -20 8 11.6
0 -2 -20 10.2 11.7
0 2 20 10.3 6.6
0 2 20 2.2 13.4
0 -3 -20 -3.8 5.6
0 3 20 6.9 15.5
0 3 -20 0 7.8
0 3 20 1.2 6.7
0 -4 -20 17.1 11.7
0 4 -20 47.5 19.4
0 5 20 15.1 15.7
0 5 -20 1.6 7.8
0 -5 -20 -7 5.5
0 -6 -20 97.19 27.2
0 6 -20 82.89 24.7
0 7 -20 -0.2 9.2
0 -7 -20 1.6 9.4
-1 0 -20 14.4 13.4
1 0 20 7.9 13.2
1 0 -20 -4.1 5.8
1 1 20 4.5 4.5
-1 1 -20 -0.2 7.1
1 -1 -20 -0.1 7.3
-1 -1 -20 14.9 13.2
1 1 -20 1.4 7.2
1 2 20 14 7.7
1 -2 -20 12.9 13.3
-1 2 -20 9.1 12.1
1 2 20 24.2 17.8
-1 -2 -20 3.8 10.1
1 2 -20 6.6 9.9
-1 2 20 43.7 9
-1 3 -20 -0.8 8.2
1 3 20 12.2 8.6
1 -3 -20 31 18.9
1 3 20 51.49 38.8
-1 3 20 18.5 20.3
-1 3 20 14.1 8.7
-1 -3 -20 4.4 9.6
1 3 -20 7.8 10
1 -4 -20 11.1 13
-1 4 -20 -1.8 7.6
-1 4 20 7.7 9
-1 -4 -20 8.5 12.1
1 4 -20 0.5 9.3
-1 5 -20 35.1 18.9
1 -5 -20 -0.8 8.3
1 5 20 11.9 13.3
1 5 -20 22.2 15.4
-1 -5 -20 9.8 14.6
-1 6 -20 5.9 12.1
1 -6 -20 0 8.1
1 6 -20 3.2 10
-1 -6 -20 -5.3 7.5
1 -7 -20 17.9 16.1
-1 7 -20 10.6 12
-1 -7 -20 38.8 18.7
1 7 -20 17.7 15
2 0 -20 336.77 48.3
-2 0 -20 242.18 38.7
2 0 20 264.87 44.3
2 1 20 37.6 9.4
-2 1 -20 20.2 15.3
2 -1 -20 12.8 11.9
2 1 -20 45.2 18.1
-2 -1 -20 10.2 12.3
2 -1 20 12.7 13.3
-2 2 -20 -1.2 6.6
2 -2 -20 5.5 10.5
2 2 20 -3.5 12
2 2 20 -0.6 5.3
2 2 -20 1.8 7.9
2 -2 20 1 9.9
-2 -2 -20 -1.7 7.3
2 -3 -20 -4.8 5.7
-2 3 -20 6.9 9.4
2 3 20 0.1 6.6
-2 -3 -20 3.2 9.3
-2 3 20 6.6 6.3
2 3 -20 -4 6.3
2 4 20 4 8.7
2 -4 -20 7 10.6
-2 4 -20 6.9 11.3
-2 4 20 1.2 9.3
2 4 -20 14.8 13.4
-2 -4 -20 15.2 13.8
2 5 20 0 12.7
-2 5 -20 30.7 18.8
2 5 -20 42.3 17.6
2 -6 -20 13.5 13.5
-2 6 -20 7.6 10.4
-2 -6 -20 2.2 9.1
2 6 -20 -0.9 8
-2 7 -20 0.5 8.9
2 -7 -20 -1 6.9
-2 -7 -20 -2.3 7.6
2 7 -20 0.5 11.4
-3 0 -20 7.7 9.8
3 0 20 1.4 4.8
3 0 -20 -5.4 5.9
3 0 20 -2 11.4
3 1 20 -0.8 5.2
3 -1 -20 -3.2 6.4
3 1 20 -5.1 12.5
-3 1 -20 2.6 10.4
3 1 -20 -5 5.3
3 -1 20 2.4 12.1
3 -1 20 -1.2 2.1
-3 -1 -20 2.7 9.2
3 -1 20 1.3 2.5
3 2 20 34.7 22.1
3 2 20 20.3 10.3
-3 2 -20 16.4 14
3 -2 -20 16.4 13.1
3 -2 20 1.8 10.7
-3 -2 -20 17.5 15.8
3 2 -20 -6.2 5.7
3 3 20 -5.4 15.6
-3 3 -20 14.1 13.4
3 -3 -20 14.1 12.3
3 3 -20 10.8 13.2
-3 -3 -20 -1.9 6.5
-3 3 20 4.6 6.5
-3 4 -20 3.1 10.4
3 -4 -20 -4.4 5.3
3 4 20 -2.6 8.4
3 4 -20 3.3 9.4
-3 -4 -20 6.4 11.8
-3 5 -20 9 11.9
3 -5 -20 17.2 15.5
-3 -5 -20 34.2 17.6
3 5 -20 1.2 9.5
-3 6 -20 17 16.5
3 -6 -20 12.1 13.4
3 6 -20 -3.6 7.4
-3 -6 -20 -0.3 8.5
-4 0 -20 12.2 13.1
4 0 20 21.3 8.8
4 0 -20 28.7 15.3
4 0 20 24.7 19.8
-4 1 -20 18.3 15.5
4 1 20 16.1 16.9
4 -1 -20 29.1 15.7
4 1 20 30.8 11
4 -1 20 6.6 13.3
-4 -1 -20 18.7 14.9
4 -1 20 22.5 7.1
4 -1 20 -0.5 4.2
4 1 -20 6.9 11.5
-4 2 -20 4.3 10.7
4 -2 -20 -2 7.5
4 2 20 1.2 16
4 -2 20 -0.6 2.5
4 2 -20 -4.7 6.6
-4 -2 -20 8.2 11.7
4 -2 20 -0.6 2.4
4 3 20 14.2 10.9
-4 3 -20 12.9 13.6
4 -3 -20 6.6 10
4 3 -20 7.8 12
-4 -3 -20 5 10
-4 4 -20 -2.3 8.5
4 4 20 -1.7 10.9
4 4 -20 -2.8 7.6
-4 5 -20 100.49 29.7
4 -5 -20 107.59 29.7
4 5 -20 78.39 25.4
-4 -5 -20 86.89 25.1
-4 6 -20 6 12.2
4 -6 -20 8.6 13.3
-4 -6 -20 -2.3 9.2
4 6 -20 -3.5 7.8
5 0 20 47.9 22.5
5 0 -20 67.29 21.9
-5 0 -20 107.79 28.7
5 -1 -20 -0.6 7.5
5 1 20 2.2 16.1
-5 1 -20 -2.7 7.2
5 -1 20 13.5 7
5 1 -20 19.8 16.2
5 -1 20 -8.6 13.4
-5 -1 -20 -5 6.4
-5 2 -20 -3.3 9
5 2 20 -0.6 17.3
5 -2 -20 9.3 11.6
-5 -2 -20 3.6 11.6
5 2 -20 -2.6 7.3
5 -2 20 1.7 4.3
-5 3 -20 9.4 11.6
5 3 -20 14.8 14
5 -3 20 0.6 3.4
-5 4 -20 4.3 10
5 -4 -20 -3 9.2
-5 -4 -20 -1 8.3
5 4 -20 -3.6 7.6
-5 5 -20 14 15.9
5 -5 -20 23.7 17.4
-5 -5 -20 19.8 15.3
5 5 -20 3.8 11.2
-6 0 -20 75.99 25.9
6 0 20 77.49 31.8
6 0 -20 86.89 25.1
-6 1 -20 13.3 13.2
6 -1 -20 5.4 12.6
6 -1 20 25.2 9.2
-6 -1 -20 6.6 14.2
6 1 -20 29.3 17.9
6 -2 -20 -4.8 8.6
-6 2 -20 3 10.7
6 -2 20 -1.2 4.6
-6 -2 -20 -5.1 5.9
6 2 -20 -0.6 9.6
6 -3 -20 3 10.3
-6 3 -20 1.3 10.7
6 3 -20 9.4 12.9
6 -3 20 1.3 4.6
-6 -3 -20 -3.3 6.1
-6 4 -20 -3.5 8.5
6 -4 -20 2.3 9.1
-6 -4 -20 -2.7 7.8
6 4 -20 13.3 14.6
6 5 -20 5.8 11.7
-7 0 -20 14.5 15.5
7 0 -20 -2.4 7.5
7 -1 -20 6.3 11.7
-7 -1 -20 -8 7.2
7 1 -20 -7.1 9.2
7 -2 -20 6.3 11
-7 2 -20 0.2 10
7 -2 20 -0.5 5.6
-7 -2 -20 10 13.1
7 2 -20 -4 7.4
-7 3 -20 30.8 21.3
7 -3 -20 16.2 15.3
7 -3 20 25.2 10.4
7 3 -20 21.9 17.1
-7 -3 -20 12.6 14.6
8 0 -20 -4 7.8
-8 0 -20 2.8 11.5
-8 1 -20 -1.1 9.2
8 -1 -20 -4.7 8
8 1 -20 -5.2 7.8
-8 -1 -20 1.2 9.7
8 -1 20 12.5 10.1
0 0 -21 3.6 9.9
0 -1 -21 1.9 11.1
0 1 -21 -4.2 6.1
0 2 -21 74.79 23.2
0 2 21 38.6 29.8
0 -2 -21 59.89 21.5
0 3 -21 -6.3 7.4
0 4 -21 2.9 10.8
0 -4 -21 5.6 9.1
0 5 -21 4.4 10.4
0 -5 -21 4.1 11
1 0 21 -3.4 24.2
1 0 -21 -4.9 5.6
-1 0 -21 -0.2 7.9
-1 1 -21 50.29 18.7
1 -1 -21 55.49 22
1 1 21 11.4 18.6
-1 -1 -21 56.29 20.2
1 1 -21 38.9 17.8
1 2 21 14 22.2
-1 2 -21 31 17.7
1 -2 -21 -2.8 7.2
-1 -2 -21 28 15
1 2 -21 -0.7 8.2
-1 3 -21 -1.2 9.2
1 3 -21 -1.2 7.5
-1 4 -21 0.5 9.7
1 -4 -21 9.8 12
-1 -4 -21 0.9 9.2
1 4 -21 11.3 12.6
-1 5 -21 -5.6 7.5
1 -5 -21 -4.1 8
-1 -5 -21 -7.8 7
1 5 -21 0.5 8.3
2 0 -21 -4.1 6.1
2 0 21 -0.9 12.7
-2 0 -21 -5.4 6.4
2 1 21 5.5 15.9
-2 1 -21 7.4 9.9
2 -1 -21 13.2 14.7
-2 -1 -21 4.6 11
2 1 -21 -2.2 7.9
2 -2 -21 0.3 8.7
2 2 21 3.5 17.9
-2 2 -21 6.4 9.5
-2 -2 -21 -3.8 8.7
2 2 -21 -0.7 9.6
-2 3 -21 10.4 13.3
2 -3 -21 -0.8 9.2
2 3 -21 7.5 11.8
-2 -3 -21 7.9 13.1
-2 4 -21 -1.5 6.9
2 -4 -21 5.9 10.2
-2 -4 -21 -4.6 7.2
2 4 -21 5.4 10.5
2 -5 -21 4.8 10.8
-2 5 -21 -4.4 7.3
2 5 -21 0.2 9.3
-2 -5 -21 11.7 16.2
3 0 21 9.4 24.8
3 0 21 -1.9 2.8
-3 0 -21 3 9.6
3 0 -21 2.2 9.4
3 1 21 7.2 16.8
-3 1 -21 3.1 9.2
3 -1 -21 10.3 13.4
3 1 -21 16 14.3
-3 -1 -21 0.9 10.4
3 2 21 13.3 35.2
-3 2 -21 1.5 9.7
3 2 -21 -4.3 6.5
3 -3 -21 -3.9 7
-3 3 -21 -6.1 6.5
-3 -3 -21 3.1 10.4
3 3 -21 -2.6 8
-3 4 -21 -1.7 10.9
3 -4 -21 0.6 8.1
-3 -4 -21 5.7 11.5
3 4 -21 -1.7 8.7
-3 5 -21 -3.7 8.7
3 -5 -21 -2.8 7.8
3 5 -21 0 9.1
-3 -5 -21 3.4 11.6
4 0 -21 -6.1 7.1
-4 0 -21 2.1 8.7
-4 1 -21 -4.4 8.1
4 -1 -21 3.6 16
4 1 -21 0.6 9.3
4 -2 -21 -0.9 8.7
-4 2 -21 2.1 10
4 2 -21 -5.9 7.4
-4 -2 -21 -1.7 8.1
-4 3 -21 6.4 13.3
4 -3 -21 -4.3 7.8
-4 -3 -21 -4.5 7.8
4 3 -21 -4.4 8
-4 4 -21 -3.8 8
4 -4 -21 4.3 9.9
-4 -4 -21 -1.2 10.2
4 4 -21 -4.3 7.6
5 0 -21 -6.8 14.1
-5 0 -21 -2.1 10.9
-5 1 -21 11.8 21.5
5 -1 -21 -4.1 7.5
5 1 -21 -0.4 11.5
-5 -1 -21 19.6 15
5 -1 21 2.5 5.9
-5 2 -21 3.5 11.4
5 -2 -21 2.2 9.5
5 2 -21 -4.7 7.3
-5 -2 -21 -6.4 6.7
5 -3 -21 -2.6 8.3
-5 3 -21 -1.5 8.8
-5 -3 -21 -4.4 7.4
5 3 -21 -0.9 8.6
-6 0 -21 0.6 10.4
6 0 -21 -1.4 8.7
-6 1 -21 -6.1 8.2
6 -1 -21 11.5 12.4
6 -1 21 10.9 10.2
6 1 -21 3.2 11.1
-6 -1 -21 -6.6 7.4
-6 2 -21 0.6 10.4
6 -2 -21 2.9 12.1
-6 -2 -21 18.5 13.2
6 2 -21 1.6 10.7
0 0 -22 2.8 12.6
0 -1 -22 5.9 12.5
0 1 -22 -1.2 8
0 -2 -22 17.8 16.7
0 2 -22 41.9 21.8
0 3 -22 0.6 10.3
0 -3 -22 7.3 10.9
1 0 -22 7 17.5
-1 0 -22 -6 9.3
1 -1 -22 57.89 23.8
-1 1 -22 27.5 24.2
1 1 -22 53.99 26.6
-1 -1 -22 48.7 22.6
-1 2 -22 -4.9 6.6
1 -2 -22 3.6 9.2
-1 -2 -22 1.3 10.6
1 2 -22 -5.2 7.6
1 -3 -22 3.3 11.1
-1 3 -22 3.1 13.1
1 3 -22 -0.7 8.6
-1 -3 -22 -4.3 7.5
-2 0 -22 -2.6 6.8
2 0 -22 -2.2 8
2 -1 -22 -2.3 8.4
-2 -1 -22 -2.3 8.8
2 -2 -22 1 9.8
-2 2 -22 -2.6 9.6
-2 -2 -22 -4 7.6
2 2 -22 31.7 22.8
-2 3 -22 13.4 14
2 -3 -22 -2.2 8.5
-2 -3 -22 0.2 10.2
2 3 -22 3.9 11.7
-3 0 -22 71.89 25.3
3 0 -22 72.29 25.4
3 -1 -22 5.9 11.8
-3 1 -22 -1.2 9.9
3 1 -22 -3 9.2
-3 -1 -22 1.1 10
3 -2 -22 -4.6 8.1
-3 2 -22 -2.1 11.4
3 2 -22 5.9 14.1
-3 -2 -22 -2.5 8.7
4 0 -22 17.5 16.3
-4 0 -22 12.6 15.5
4 -1 -22 18.4 17.2
-4 1 -22 5.4 11.8
4 1 -22 1.2 10
-4 -1 -22 -5.7 8.3
loop_
_geom_angle_atom_site_label_1
_geom_angle_atom_site_label_2
_geom_angle_atom_site_label_3
_geom_angle
_geom_angle_site_symmetry_1
_geom_angle_site_symmetry_3
_geom_angle_publ_flag
F2 K2 O1 100.40(5) . 8_765 ?
F2 K2 O2 130.39(6) . 8_765 ?
F2 K2 O6 154.10(6) . 6_556 ?
F2 K2 O6 69.64(5) . 8_755 ?
F2 K2 O4 108.12(6) . 6_556 ?
F2 K2 O3 63.54(5) . . ?
F2 K2 F1 91.34(6) . 5_666 ?
F2 K2 O5 109.94(6) . . ?
F2 K2 B2 122.26(7) . 8_765 ?
F2 K2 B3 93.92(6) . 6_556 ?
F2 K2 B3 146.83(7) . 8_765 ?
O1 K2 B3 64.70(6) 8_765 8_765 ?
O1 K2 B3 152.83(6) 8_765 6_556 ?
O2 K2 O1 42.56(5) 8_765 8_765 ?
O2 K2 O6 159.29(6) 8_765 8_755 ?
O2 K2 O6 48.22(5) 8_765 6_556 ?
O2 K2 O3 113.14(6) 8_765 . ?
O2 K2 F1 62.52(6) 8_765 5_666 ?
O2 K2 O5 85.95(6) 8_765 . ?
O2 K2 B2 22.90(6) 8_765 8_765 ?
O2 K2 B3 23.02(6) 8_765 8_765 ?
O2 K2 B3 134.55(7) 8_765 6_556 ?
O6 K2 O1 151.26(5) 8_755 8_765 ?
O6 K2 O1 88.99(5) 6_556 8_765 ?
O6 K2 O6 111.86(2) 6_556 8_755 ?
O6 K2 B2 66.30(6) 6_556 8_765 ?
O6 K2 B3 25.21(6) 6_556 8_765 ?
O6 K2 B3 24.74(6) 8_755 6_556 ?
O6 K2 B3 136.93(6) 8_755 8_765 ?
O6 K2 B3 88.00(6) 6_556 6_556 ?
O4 K2 O1 151.22(5) 6_556 8_765 ?
O4 K2 O2 115.06(6) 6_556 8_765 ?
O4 K2 O6 45.17(5) 6_556 8_755 ?
O4 K2 O6 66.88(5) 6_556 6_556 ?
O4 K2 O3 116.77(6) 6_556 . ?
O4 K2 F1 94.89(6) 6_556 5_666 ?
O4 K2 O5 99.94(6) 6_556 . ?
O4 K2 B2 129.51(7) 6_556 8_765 ?
O4 K2 B3 23.61(6) 6_556 6_556 ?
O4 K2 B3 92.09(7) 6_556 8_765 ?
O3 K2 O1 72.70(5) . 8_765 ?
O3 K2 O6 78.85(5) . 8_755 ?
O3 K2 O6 142.18(6) . 6_556 ?
O3 K2 F1 143.83(7) . 5_666 ?
O3 K2 O5 46.52(5) . . ?
O3 K2 B2 90.28(7) . 8_765 ?
O3 K2 B3 130.15(7) . 8_765 ?
O3 K2 B3 93.74(7) . 6_556 ?
F1 K2 O1 88.11(6) 5_666 8_765 ?
F1 K2 O6 64.68(5) 5_666 6_556 ?
F1 K2 O6 118.20(6) 5_666 8_755 ?
F1 K2 O5 148.45(6) 5_666 . ?
F1 K2 B2 81.54(7) 5_666 8_765 ?
F1 K2 B3 114.69(7) 5_666 6_556 ?
F1 K2 B3 60.20(6) 5_666 8_765 ?
O5 K2 O1 65.85(5) . 8_765 ?
O5 K2 O6 91.57(5) . 8_755 ?
O5 K2 O6 95.93(5) . 6_556 ?
O5 K2 B2 67.52(7) . 8_765 ?
O5 K2 B3 91.39(6) . 8_765 ?
O5 K2 B3 87.63(7) . 6_556 ?
B2 K2 O1 22.92(6) 8_765 8_765 ?
B2 K2 O6 158.15(7) 8_765 8_755 ?
B2 K2 B3 140.88(7) 8_765 6_556 ?
B2 K2 B3 42.78(7) 8_765 8_765 ?
B3 K2 B3 112.63(4) 8_765 6_556 ?
F2 K1 O1 125.13(6) . 4_456 ?
F2 K1 O2 92.37(5) . 4_456 ?
F2 K1 O9 146.34(6) . 6_546 ?
F2 K1 O6 71.54(5) . 8_755 ?
F2 K1 O4 107.68(6) . 8_755 ?
F2 K1 O7 114.43(6) . 3_645 ?
F2 K1 F1 43.08(5) . . ?
F2 K1 O8 75.43(6) . 3_645 ?
F2 K1 B4 84.79(7) . 8_755 ?
F2 K1 B3 125.72(7) . 8_755 ?
F2 K1 B6 98.46(7) . 3_645 ?
O1 K1 O2 42.97(5) 4_456 4_456 ?
O1 K1 O6 163.08(6) 4_456 8_755 ?
O1 K1 O4 111.24(5) 4_456 8_755 ?
O1 K1 F1 92.01(5) 4_456 . ?
O1 K1 O8 89.96(6) 4_456 3_645 ?
O1 K1 B4 123.03(6) 4_456 8_755 ?
O1 K1 B3 85.48(6) 4_456 8_755 ?
O1 K1 B6 84.00(7) 4_456 3_645 ?
O2 K1 B3 82.79(6) 4_456 8_755 ?
O9 K1 O1 63.67(6) 6_546 4_456 ?
O9 K1 O2 74.18(5) 6_546 4_456 ?
O9 K1 O6 104.60(6) 6_546 8_755 ?
O9 K1 O4 48.49(5) 6_546 8_755 ?
O9 K1 O7 96.65(6) 6_546 3_645 ?
O9 K1 F1 110.79(6) 6_546 . ?
O9 K1 O8 137.97(6) 6_546 3_645 ?
O9 K1 B4 67.13(7) 6_546 8_755 ?
O9 K1 B3 24.05(6) 6_546 8_755 ?
O9 K1 B6 115.15(7) 6_546 3_645 ?
O6 K1 O2 149.27(5) 8_755 4_456 ?
O6 K1 B4 56.15(6) 8_755 8_755 ?
O6 K1 B3 85.83(6) 8_755 8_755 ?
O4 K1 O2 102.20(5) 8_755 4_456 ?
O4 K1 O6 60.74(5) 8_755 8_755 ?
O4 K1 F1 100.92(5) 8_755 . ?
O4 K1 B4 23.72(6) 8_755 8_755 ?
O4 K1 B3 25.78(6) 8_755 8_755 ?
O4 K1 B6 130.84(7) 8_755 3_645 ?
O7 K1 O1 90.84(6) 3_645 4_456 ?
O7 K1 O2 132.66(6) 3_645 4_456 ?
O7 K1 O6 78.03(6) 3_645 8_755 ?
O7 K1 O4 105.25(6) 3_645 8_755 ?
O7 K1 F1 150.60(6) 3_645 . ?
O7 K1 O8 49.02(6) 3_645 3_645 ?
O7 K1 B4 122.04(7) 3_645 8_755 ?
O7 K1 B3 107.62(7) 3_645 8_755 ?
O7 K1 B6 25.81(7) 3_645 3_645 ?
F1 K1 O2 51.36(4) . 4_456 ?
F1 K1 O6 103.96(5) . 8_755 ?
F1 K1 B4 79.93(7) . 8_755 ?
F1 K1 B3 101.77(6) . 8_755 ?
O8 K1 O2 109.33(6) 3_645 4_456 ?
O8 K1 O6 92.17(6) 3_645 8_755 ?
O8 K1 O4 148.22(6) 3_645 8_755 ?
O8 K1 F1 101.72(6) 3_645 . ?
O8 K1 B4 146.99(7) 3_645 8_755 ?
O8 K1 B3 156.20(7) 3_645 8_755 ?
O8 K1 B6 24.77(7) 3_645 3_645 ?
B4 K1 O2 97.46(6) 8_755 4_456 ?
B4 K1 B3 43.12(7) 8_755 8_755 ?
B6 K1 O2 117.79(7) 3_645 4_456 ?
B6 K1 O6 90.96(7) 3_645 8_755 ?
B6 K1 F1 125.82(7) 3_645 . ?
B6 K1 B4 144.29(8) 3_645 8_755 ?
B6 K1 B3 131.45(8) 3_645 8_755 ?
K2 F2 K1 109.18(6) . . ?
B1 F2 K2 131.36(16) . . ?
B1 F2 K1 119.23(15) . . ?
K1 O1 K2 74.82(4) 4_556 8_755 ?
B2 O1 K2 74.54(14) . 8_755 ?
B2 O1 K1 107.90(16) . 4_556 ?
B2 O1 B1 126.2(2) . . ?
B1 O1 K2 149.71(15) . 8_755 ?
B1 O1 K1 112.28(15) . 4_556 ?
K2 O2 K1 77.13(5) 8_755 4_556 ?
B2 O2 K2 105.93(16) . 8_755 ?
B2 O2 K1 82.73(15) . 4_556 ?
B2 O2 B3 125.4(2) . . ?
B3 O2 K2 110.35(15) . 8_755 ?
B3 O2 K1 143.97(16) . 4_556 ?
B3 O9 K1 106.77(15) 3_755 6_666 ?
B6 O9 K1 124.05(17) . 6_666 ?
B6 O9 B3 124.3(2) . 3_755 ?
K2 O6 K2 152.02(6) 6_656 8_765 ?
K2 O6 K1 84.34(5) 6_656 8_765 ?
K1 O6 K2 78.92(4) 8_765 8_765 ?
B5 O6 K2 100.85(16) . 6_656 ?
B5 O6 K2 105.68(16) . 8_765 ?
B5 O6 K1 108.83(16) . 8_765 ?
B5 O6 B3 120.6(2) . 3_755 ?
B3 O6 K2 81.06(14) 3_755 8_765 ?
B3 O6 K2 93.07(15) 3_755 6_656 ?
B3 O6 K1 129.99(15) 3_755 8_765 ?
K2 O4 K1 96.89(6) 6_656 8_765 ?
B4 O4 K2 125.64(17) . 6_656 ?
B4 O4 K1 92.14(16) . 8_765 ?
B4 O4 B3 122.5(2) . . ?
B3 O4 K2 110.39(15) . 6_656 ?
B3 O4 K1 93.37(15) . 8_765 ?
B5 O7 K1 132.69(17) . 3_655 ?
B5 O7 B6 118.9(2) . . ?
B6 O7 K1 95.48(17) . 3_655 ?
B2 O3 K2 135.32(17) . . ?
B4 O3 K2 103.39(16) . . ?
B4 O3 B2 119.1(2) . . ?
K2 F1 K1 77.36(6) 5_666 . ?
B1 F1 K2 109.30(16) . 5_666 ?
B1 F1 K1 90.32(16) . . ?
B4 O5 K2 94.61(15) . . ?
B4 O5 B5 134.8(2) . . ?
B5 O5 K2 130.43(17) . . ?
B1 O8 K1 133.40(17) 7_575 3_655 ?
B6 O8 K1 94.03(16) . 3_655 ?
B6 O8 B1 130.2(2) . 7_575 ?
K2 B2 K1 68.34(6) 8_755 4_556 ?
O1 B2 K2 82.55(14) . 8_755 ?
O1 B2 K1 50.44(13) . 4_556 ?
O1 B2 O2 119.3(2) . . ?
O1 B2 O3 120.8(2) . . ?
O2 B2 K2 51.17(13) . 8_755 ?
O2 B2 K1 74.61(14) . 4_556 ?
O2 B2 O3 119.9(2) . . ?
O3 B2 K2 136.21(18) . 8_755 ?
O3 B2 K1 155.39(19) . 4_556 ?
K1 B1 K2 65.11(5) . 5_666 ?
F2 B1 K2 81.46(14) . 5_666 ?
F2 B1 K1 40.23(11) . . ?
F2 B1 O1 110.8(2) . . ?
F2 B1 O8 107.1(2) . 7_576 ?
O1 B1 K2 157.70(18) . 5_666 ?
O1 B1 K1 111.78(16) . . ?
O1 B1 O8 115.4(2) . 7_576 ?
F1 B1 K2 48.91(13) . 5_666 ?
F1 B1 K1 66.52(15) . . ?
F1 B1 F2 104.9(2) . . ?
F1 B1 O1 108.9(2) . . ?
F1 B1 O8 109.2(2) . 7_576 ?
O8 B1 K2 76.17(15) 7_576 5_666 ?
O8 B1 K1 130.68(18) 7_576 . ?
O4 B4 K1 64.13(14) . 8_765 ?
O4 B4 O3 122.4(2) . . ?
O4 B4 O5 123.7(2) . . ?
O3 B4 K1 109.90(18) . 8_765 ?
O3 B4 O5 113.9(2) . . ?
O5 B4 K1 98.08(16) . 8_765 ?
O6 B5 K2 57.39(14) . 6_656 ?
O6 B5 O7 122.8(2) . . ?
O6 B5 O5 123.2(3) . . ?
O7 B5 K2 126.91(19) . 6_656 ?
O7 B5 O5 114.0(2) . . ?
O5 B5 K2 90.61(16) . 6_656 ?
K2 B3 K2 128.50(9) 8_755 6_656 ?
K1 B3 K2 75.87(6) 8_765 6_656 ?
K1 B3 K2 154.35(10) 8_765 8_755 ?
O2 B3 K2 151.61(19) . 6_656 ?
O2 B3 K2 46.63(12) . 8_755 ?
O2 B3 K1 108.52(16) . 8_765 ?
O2 B3 O9 111.0(2) . 3_745 ?
O2 B3 O6 108.3(2) . 3_745 ?
O2 B3 O4 110.4(2) . . ?
O9 B3 K2 125.89(17) 3_745 8_755 ?
O9 B3 K2 93.21(16) 3_745 6_656 ?
O9 B3 K1 49.18(12) 3_745 8_765 ?
O9 B3 O6 111.4(2) 3_745 3_745 ?
O9 B3 O4 106.1(2) 3_745 . ?
O6 B3 K2 74.20(14) 3_745 6_656 ?
O6 B3 K2 61.72(13) 3_745 8_755 ?
O6 B3 K1 142.85(18) 3_745 8_765 ?
O6 B3 O4 109.6(2) 3_745 . ?
O4 B3 K2 46.00(12) . 6_656 ?
O4 B3 K2 127.33(17) . 8_755 ?
O4 B3 K1 60.86(12) . 8_765 ?
O9 B6 K1 157.3(2) . 3_655 ?
O9 B6 O7 119.6(3) . . ?
O9 B6 O8 126.0(3) . . ?
O7 B6 K1 58.71(14) . 3_655 ?
O8 B6 K1 61.20(15) . 3_655 ?
O8 B6 O7 114.4(3) . . ?
loop_
_geom_bond_atom_site_label_1
_geom_bond_atom_site_label_2
_geom_bond_distance
_geom_bond_site_symmetry_2
_geom_bond_publ_flag
K2 F2 2.5928(19) . ?
K2 O1 3.4234(19) 8_765 ?
K2 O2 2.6957(19) 8_765 ?
K2 O6 3.410(2) 8_755 ?
K2 O6 3.066(2) 6_556 ?
K2 O4 2.686(2) 6_556 ?
K2 O3 2.806(2) . ?
K2 F1 2.834(2) 5_666 ?
K2 O5 2.998(2) . ?
K2 B2 3.328(3) 8_765 ?
K2 B3 3.501(3) 6_556 ?
K2 B3 3.477(3) 8_765 ?
K1 F2 2.6249(19) . ?
K1 O1 2.8087(19) 4_456 ?
K1 O2 3.369(2) 4_456 ?
K1 O9 2.7138(19) 6_546 ?
K1 O6 3.280(2) 8_755 ?
K1 O4 3.004(2) 8_755 ?
K1 O7 2.752(2) 3_645 ?
K1 F1 3.253(2) . ?
K1 O8 2.816(2) 3_645 ?
K1 B4 3.336(3) 8_755 ?
K1 B3 3.433(3) 8_755 ?
K1 B6 3.206(3) 3_645 ?
F2 B1 1.426(3) . ?
O1 K2 3.4235(19) 8_755 ?
O1 K1 2.8087(19) 4_556 ?
O1 B2 1.344(3) . ?
O1 B1 1.434(3) . ?
O2 K2 2.6958(19) 8_755 ?
O2 K1 3.369(2) 4_556 ?
O2 B2 1.347(3) . ?
O2 B3 1.450(4) . ?
O9 K1 2.7137(19) 6_666 ?
O9 B3 1.461(4) 3_755 ?
O9 B6 1.346(4) . ?
O6 K2 3.410(2) 8_765 ?
O6 K2 3.066(2) 6_656 ?
O6 K1 3.280(2) 8_765 ?
O6 B5 1.349(4) . ?
O6 B3 1.483(3) 3_755 ?
O4 K2 2.686(2) 6_656 ?
O4 K1 3.004(2) 8_765 ?
O4 B4 1.343(4) . ?
O4 B3 1.496(3) . ?
O7 K1 2.752(2) 3_655 ?
O7 B5 1.368(4) . ?
O7 B6 1.402(3) . ?
O3 B2 1.396(3) . ?
O3 B4 1.371(3) . ?
F1 K2 2.834(2) 5_666 ?
F1 B1 1.395(3) . ?
O5 B4 1.371(3) . ?
O5 B5 1.377(3) . ?
O8 K1 2.816(2) 3_655 ?
O8 B1 1.438(3) 7_575 ?
O8 B6 1.347(4) . ?
B2 K2 3.328(3) 8_755 ?
B2 K1 3.467(3) 4_556 ?
B1 K2 3.548(3) 5_666 ?
B1 O8 1.438(3) 7_576 ?
B4 K1 3.336(3) 8_765 ?
B5 K2 3.575(3) 6_656 ?
B3 K2 3.477(3) 8_755 ?
B3 K2 3.501(3) 6_656 ?
B3 K1 3.433(3) 8_765 ?
B3 O9 1.461(4) 3_745 ?
B3 O6 1.483(3) 3_745 ?
B6 K1 3.206(3) 3_655 ?
loop_
_geom_torsion_atom_site_label_1
_geom_torsion_atom_site_label_2
_geom_torsion_atom_site_label_3
_geom_torsion_atom_site_label_4
_geom_torsion
_geom_torsion_site_symmetry_1
_geom_torsion_site_symmetry_2
_geom_torsion_site_symmetry_3
_geom_torsion_site_symmetry_4
_geom_torsion_publ_flag
K2 F2 B1 K2 124.97(15) . . . 5_666 ?
K2 F2 B1 K1 -173.8(3) . . . . ?
K2 F2 B1 O1 -74.3(3) . . . . ?
K2 F2 B1 F1 168.31(14) . . . . ?
K2 F2 B1 O8 52.4(3) . . . 7_576 ?
K2 O1 B2 K1 -67.99(9) 8_755 . . 4_556 ?
K2 O1 B2 O2 -37.0(2) 8_755 . . . ?
K2 O1 B2 O3 140.3(3) 8_755 . . . ?
K2 O1 B1 K2 49.8(7) 8_755 . . 5_666 ?
K2 O1 B1 K1 -27.5(4) 8_755 . . . ?
K2 O1 B1 F2 -70.8(4) 8_755 . . . ?
K2 O1 B1 F1 44.0(4) 8_755 . . . ?
K2 O1 B1 O8 167.24(18) 8_755 . . 7_576 ?
K2 O2 B2 K1 74.34(8) 8_755 . . 4_556 ?
K2 O2 B2 O1 50.1(3) 8_755 . . . ?
K2 O2 B2 O3 -127.3(2) 8_755 . . . ?
K2 O2 B3 K2 93.0(3) 8_755 . . 6_656 ?
K2 O2 B3 K1 -172.47(7) 8_755 . . 8_765 ?
K2 O2 B3 O9 -120.04(18) 8_755 . . 3_745 ?
K2 O2 B3 O6 2.5(2) 8_755 . . 3_745 ?
K2 O2 B3 O4 122.58(18) 8_755 . . . ?
K2 O6 B5 K2 -171.05(12) 8_765 . . 6_656 ?
K2 O6 B5 O7 -115.8(3) 6_656 . . . ?
K2 O6 B5 O7 73.1(3) 8_765 . . . ?
K2 O6 B5 O5 -104.8(3) 8_765 . . . ?
K2 O6 B5 O5 66.2(3) 6_656 . . . ?
K2 O4 B4 K1 -100.05(15) 6_656 . . 8_765 ?
K2 O4 B4 O3 161.89(19) 6_656 . . . ?
K2 O4 B4 O5 -17.8(4) 6_656 . . . ?
K2 O4 B3 K2 -110.59(16) 6_656 . . 8_755 ?
K2 O4 B3 K1 98.63(10) 6_656 . . 8_765 ?
K2 O4 B3 O2 -160.98(16) 6_656 . . . ?
K2 O4 B3 O9 78.6(2) 6_656 . . 3_745 ?
K2 O4 B3 O6 -41.7(2) 6_656 . . 3_745 ?
K2 O3 B2 K2 97.5(3) . . . 8_755 ?
K2 O3 B2 K1 -77.6(5) . . . 4_556 ?
K2 O3 B2 O1 -16.2(4) . . . . ?
K2 O3 B2 O2 161.08(18) . . . . ?
K2 O3 B4 K1 121.89(11) . . . 8_765 ?
K2 O3 B4 O4 -166.8(2) . . . . ?
K2 O3 B4 O5 13.0(3) . . . . ?
K2 F1 B1 K1 -76.70(10) 5_666 . . . ?
K2 F1 B1 F2 -64.2(2) 5_666 . . . ?
K2 F1 B1 O1 177.12(16) 5_666 . . . ?
K2 F1 B1 O8 50.3(2) 5_666 . . 7_576 ?
K2 O5 B4 K1 -127.88(8) . . . 8_765 ?
K2 O5 B4 O4 167.9(3) . . . . ?
K2 O5 B4 O3 -11.8(2) . . . . ?
K2 O5 B5 K2 -158.13(14) . . . 6_656 ?
K2 O5 B5 O6 151.4(2) . . . . ?
K2 O5 B5 O7 -26.7(4) . . . . ?
K1 F2 B1 K2 -61.22(12) . . . 5_666 ?
K1 F2 B1 O1 99.5(2) . . . . ?
K1 F2 B1 F1 -17.9(3) . . . . ?
K1 F2 B1 O8 -133.81(17) . . . 7_576 ?
K1 O1 B2 K2 67.99(9) 4_556 . . 8_755 ?
K1 O1 B2 O2 31.0(3) 4_556 . . . ?
K1 O1 B2 O3 -151.7(2) 4_556 . . . ?
K1 O1 B1 K2 -48.3(5) 4_556 . . 5_666 ?
K1 O1 B1 K1 -125.56(10) 4_556 . . . ?
K1 O1 B1 F2 -168.87(15) 4_556 . . . ?
K1 O1 B1 F1 -54.0(2) 4_556 . . . ?
K1 O1 B1 O8 69.2(2) 4_556 . . 7_576 ?
K1 O2 B2 K2 -74.34(8) 4_556 . . 8_755 ?
K1 O2 B2 O1 -24.3(2) 4_556 . . . ?
K1 O2 B2 O3 158.4(3) 4_556 . . . ?
K1 O2 B3 K2 -170.87(17) 4_556 . . 6_656 ?
K1 O2 B3 K2 96.1(2) 4_556 . . 8_755 ?
K1 O2 B3 K1 -76.4(3) 4_556 . . 8_765 ?
K1 O2 B3 O9 -24.0(4) 4_556 . . 3_745 ?
K1 O2 B3 O6 98.6(3) 4_556 . . 3_745 ?
K1 O2 B3 O4 -141.33(19) 4_556 . . . ?
K1 O9 B6 K1 139.1(4) 6_666 . . 3_655 ?
K1 O9 B6 O7 -141.9(2) 6_666 . . . ?
K1 O9 B6 O8 37.9(4) 6_666 . . . ?
K1 O6 B5 K2 -87.66(9) 8_765 . . 6_656 ?
K1 O6 B5 O7 156.5(2) 8_765 . . . ?
K1 O6 B5 O5 -21.4(3) 8_765 . . . ?
K1 O4 B4 O3 -98.1(3) 8_765 . . . ?
K1 O4 B4 O5 82.2(3) 8_765 . . . ?
K1 O4 B3 K2 150.78(15) 8_765 . . 8_755 ?
K1 O4 B3 K2 -98.63(10) 8_765 . . 6_656 ?
K1 O4 B3 O2 100.39(19) 8_765 . . . ?
K1 O4 B3 O9 -20.01(19) 8_765 . . 3_745 ?
K1 O4 B3 O6 -140.36(18) 8_765 . . 3_745 ?
K1 O7 B5 K2 70.4(3) 3_655 . . 6_656 ?
K1 O7 B5 O6 141.9(2) 3_655 . . . ?
K1 O7 B5 O5 -40.0(4) 3_655 . . . ?
K1 O7 B6 O9 -153.7(3) 3_655 . . . ?
K1 O7 B6 O8 26.5(3) 3_655 . . . ?
K1 F1 B1 K2 76.70(10) . . . 5_666 ?
K1 F1 B1 F2 12.49(19) . . . . ?
K1 F1 B1 O1 -106.18(19) . . . . ?
K1 F1 B1 O8 127.0(2) . . . 7_576 ?
K1 O8 B6 O9 154.4(3) 3_655 . . . ?
K1 O8 B6 O7 -25.8(3) 3_655 . . . ?
F2 K2 O3 B2 6.0(2) . . . . ?
F2 K2 O3 B4 168.25(18) . . . . ?
F2 K2 O5 B4 3.15(17) . . . . ?
F2 K2 O5 B5 -172.9(2) . . . . ?
F2 K1 F1 K2 100.16(8) . . . 5_666 ?
F2 K1 F1 B1 -9.57(15) . . . . ?
F2 K1 B1 K2 107.16(18) . . . 5_666 ?
F2 K1 B1 O1 -96.9(2) . . . . ?
F2 K1 B1 F1 161.1(3) . . . . ?
F2 K1 B1 O8 65.4(2) . . . 7_576 ?
O1 K2 F2 K1 160.75(6) 8_765 . . . ?
O1 K2 F2 B1 -25.0(2) 8_765 . . . ?
O1 K2 O3 B2 117.5(2) 8_765 . . . ?
O1 K2 O3 B4 -80.26(17) 8_765 . . . ?
O1 K2 O5 B4 95.89(16) 8_765 . . . ?
O1 K2 O5 B5 -80.1(2) 8_765 . . . ?
O1 K1 F2 K2 -127.76(7) 4_456 . . . ?
O1 K1 F2 B1 57.16(19) 4_456 . . . ?
O1 K1 F1 K2 -43.49(5) 4_456 . . 5_666 ?
O1 K1 F1 B1 -153.21(15) 4_456 . . . ?
O1 K1 B1 K2 -24.78(7) 4_456 . . 5_666 ?
O1 K1 B1 F2 -131.93(17) 4_456 . . . ?
O1 K1 B1 O1 131.14(15) 4_456 . . . ?
O1 K1 B1 F1 29.19(17) 4_456 . . . ?
O1 K1 B1 O8 -66.5(2) 4_456 . . 7_576 ?
O2 K2 F2 K1 126.54(8) 8_765 . . . ?
O2 K2 F2 B1 -59.2(2) 8_765 . . . ?
O2 K2 O3 B2 131.1(2) 8_765 . . . ?
O2 K2 O3 B4 -66.69(18) 8_765 . . . ?
O2 K2 O5 B4 134.86(16) 8_765 . . . ?
O2 K2 O5 B5 -41.2(2) 8_765 . . . ?
O2 K1 F2 K2 -157.72(6) 4_456 . . . ?
O2 K1 F2 B1 27.20(18) 4_456 . . . ?
O2 K1 F1 K2 -58.60(5) 4_456 . . 5_666 ?
O2 K1 F1 B1 -168.32(17) 4_456 . . . ?
O2 K1 B1 K2 -44.50(4) 4_456 . . 5_666 ?
O2 K1 B1 F2 -151.66(19) 4_456 . . . ?
O2 K1 B1 O1 111.42(17) 4_456 . . . ?
O2 K1 B1 F1 9.46(14) 4_456 . . . ?
O2 K1 B1 O8 -86.2(2) 4_456 . . 7_576 ?
O9 K1 F2 K2 137.76(10) 6_546 . . . ?
O9 K1 F2 B1 -37.3(2) 6_546 . . . ?
O9 K1 F1 K2 -106.01(6) 6_546 . . 5_666 ?
O9 K1 F1 B1 144.26(15) 6_546 . . . ?
O9 K1 B1 K2 -98.34(8) 6_546 . . 5_666 ?
O9 K1 B1 F2 154.51(16) 6_546 . . . ?
O9 K1 B1 O1 57.58(19) 6_546 . . . ?
O9 K1 B1 F1 -44.38(18) 6_546 . . . ?
O9 K1 B1 O8 -140.0(2) 6_546 . . 7_576 ?
O6 K2 F2 K1 -47.27(6) 8_755 . . . ?
O6 K2 F2 K1 51.06(16) 6_556 . . . ?
O6 K2 F2 B1 -134.7(2) 6_556 . . . ?
O6 K2 F2 B1 127.0(2) 8_755 . . . ?
O6 K2 O3 B2 -178.1(2) 6_556 . . . ?
O6 K2 O3 B2 -66.6(2) 8_755 . . . ?
O6 K2 O3 B4 -15.8(2) 6_556 . . . ?
O6 K2 O3 B4 95.59(17) 8_755 . . . ?
O6 K2 O5 B4 -65.73(16) 8_755 . . . ?
O6 K2 O5 B4 -177.90(16) 6_556 . . . ?
O6 K2 O5 B5 118.2(2) 8_755 . . . ?
O6 K2 O5 B5 6.1(2) 6_556 . . . ?
O6 K1 F2 K2 49.01(6) 8_755 . . . ?
O6 K1 F2 B1 -126.08(18) 8_755 . . . ?
O6 K1 F1 K2 142.14(5) 8_755 . . 5_666 ?
O6 K1 F1 B1 32.41(16) 8_755 . . . ?
O6 K1 B1 K2 157.56(5) 8_755 . . 5_666 ?
O6 K1 B1 F2 50.41(17) 8_755 . . . ?
O6 K1 B1 O1 -46.52(16) 8_755 . . . ?
O6 K1 B1 F1 -148.48(15) 8_755 . . . ?
O6 K1 B1 O8 115.8(2) 8_755 . . 7_576 ?
O4 K2 F2 K1 -23.15(8) 6_556 . . . ?
O4 K2 F2 B1 151.1(2) 6_556 . . . ?
O4 K2 O3 B2 -91.9(2) 6_556 . . . ?
O4 K2 O3 B4 70.32(18) 6_556 . . . ?
O4 K2 O5 B4 -110.39(16) 6_556 . . . ?
O4 K2 O5 B5 73.6(2) 6_556 . . . ?
O4 K1 F2 K2 98.68(7) 8_755 . . . ?
O4 K1 F2 B1 -76.40(18) 8_755 . . . ?
O4 K1 F1 K2 -155.57(5) 8_755 . . 5_666 ?
O4 K1 F1 B1 94.71(15) 8_755 . . . ?
O4 K1 B1 K2 -143.99(5) 8_755 . . 5_666 ?
O4 K1 B1 F2 108.86(18) 8_755 . . . ?
O4 K1 B1 O1 11.93(18) 8_755 . . . ?
O4 K1 B1 F1 -90.03(15) 8_755 . . . ?
O4 K1 B1 O8 174.3(2) 8_755 . . 7_576 ?
O7 K1 F2 K2 -17.93(9) 3_645 . . . ?
O7 K1 F2 B1 166.99(17) 3_645 . . . ?
O7 K1 F1 K2 51.80(13) 3_645 . . 5_666 ?
O7 K1 F1 B1 -57.9(2) 3_645 . . . ?
O7 K1 B1 K2 90.51(9) 3_645 . . 5_666 ?
O7 K1 B1 F2 -16.6(2) 3_645 . . . ?
O7 K1 B1 O1 -113.58(17) 3_645 . . . ?
O7 K1 B1 F1 144.47(14) 3_645 . . . ?
O7 K1 B1 O8 48.8(3) 3_645 . . 7_576 ?
O3 K2 F2 K1 -134.66(9) . . . . ?
O3 K2 F2 B1 39.6(2) . . . . ?
O3 K2 O5 B4 7.25(15) . . . . ?
O3 K2 O5 B5 -168.8(3) . . . . ?
F1 K2 F2 K1 72.43(7) 5_666 . . . ?
F1 K2 F2 B1 -113.3(2) 5_666 . . . ?
F1 K2 O3 B2 56.5(3) 5_666 . . . ?
F1 K2 O3 B4 -141.29(16) 5_666 . . . ?
F1 K2 O5 B4 132.82(17) 5_666 . . . ?
F1 K2 O5 B5 -43.2(3) 5_666 . . . ?
F1 K1 F2 K2 -174.17(11) . . . . ?
F1 K1 F2 B1 10.74(16) . . . . ?
F1 K1 B1 K2 -53.96(13) . . . 5_666 ?
F1 K1 B1 F2 -161.1(3) . . . . ?
F1 K1 B1 O1 102.0(2) . . . . ?
F1 K1 B1 O8 -95.7(3) . . . 7_576 ?
O5 K2 F2 K1 -131.33(7) . . . . ?
O5 K2 F2 B1 42.9(2) . . . . ?
O5 K2 O3 B2 -169.7(3) . . . . ?
O5 K2 O3 B4 -7.44(15) . . . . ?
O8 K1 F2 K2 -48.35(7) 3_645 . . . ?
O8 K1 F2 B1 136.56(19) 3_645 . . . ?
O8 K1 F1 K2 46.89(6) 3_645 . . 5_666 ?
O8 K1 F1 B1 -62.84(16) 3_645 . . . ?
O8 K1 B1 K2 65.44(6) 3_645 . . 5_666 ?
O8 K1 B1 F2 -41.72(18) 3_645 . . . ?
O8 K1 B1 O1 -138.65(17) 3_645 . . . ?
O8 K1 B1 F1 119.40(15) 3_645 . . . ?
O8 K1 B1 O8 23.7(3) 3_645 . . 7_576 ?
B2 K2 F2 K1 153.26(7) 8_765 . . . ?
B2 K2 F2 B1 -32.5(2) 8_765 . . . ?
B2 K2 O3 B2 132.4(3) 8_765 . . . ?
B2 K2 O3 B4 -65.33(17) 8_765 . . . ?
B2 K2 O5 B4 120.81(17) 8_765 . . . ?
B2 K2 O5 B5 -55.2(2) 8_765 . . . ?
B2 O1 B1 K2 176.4(4) . . . 5_666 ?
B2 O1 B1 K1 99.1(2) . . . . ?
B2 O1 B1 F2 55.8(3) . . . . ?
B2 O1 B1 F1 170.7(2) . . . . ?
B2 O1 B1 O8 -66.1(3) . . . 7_576 ?
B2 O2 B3 K2 -35.4(5) . . . 6_656 ?
B2 O2 B3 K2 -128.5(3) . . . 8_755 ?
B2 O2 B3 K1 59.0(3) . . . 8_765 ?
B2 O2 B3 O9 111.5(3) . . . 3_745 ?
B2 O2 B3 O6 -125.9(3) . . . 3_745 ?
B2 O2 B3 O4 -5.9(4) . . . . ?
B2 O3 B4 K1 -72.3(3) . . . 8_765 ?
B2 O3 B4 O4 -1.0(4) . . . . ?
B2 O3 B4 O5 178.8(2) . . . . ?
B1 O1 B2 K2 -155.2(2) . . . 8_755 ?
B1 O1 B2 K1 136.8(3) . . . 4_556 ?
B1 O1 B2 O2 167.8(2) . . . . ?
B1 O1 B2 O3 -14.9(4) . . . . ?
B1 O8 B6 K1 -164.2(3) 7_575 . . 3_655 ?
B1 O8 B6 O9 -9.8(5) 7_575 . . . ?
B1 O8 B6 O7 170.0(3) 7_575 . . . ?
B4 K1 F2 K2 105.00(8) 8_755 . . . ?
B4 K1 F2 B1 -70.08(18) 8_755 . . . ?
B4 K1 F1 K2 -166.70(6) 8_755 . . 5_666 ?
B4 K1 F1 B1 83.57(16) 8_755 . . . ?
B4 K1 B1 K2 -145.87(7) 8_755 . . 5_666 ?
B4 K1 B1 F2 106.98(18) 8_755 . . . ?
B4 K1 B1 O1 10.05(16) 8_755 . . . ?
B4 K1 B1 F1 -91.90(16) 8_755 . . . ?
B4 K1 B1 O8 172.4(2) 8_755 . . 7_576 ?
B4 O4 B3 K2 56.1(3) . . . 8_755 ?
B4 O4 B3 K2 166.7(3) . . . 6_656 ?
B4 O4 B3 K1 -94.7(2) . . . 8_765 ?
B4 O4 B3 O2 5.7(3) . . . . ?
B4 O4 B3 O9 -114.7(3) . . . 3_745 ?
B4 O4 B3 O6 124.9(3) . . . 3_745 ?
B4 O3 B2 K2 -62.6(3) . . . 8_755 ?
B4 O3 B2 K1 122.3(4) . . . 4_556 ?
B4 O3 B2 O1 -176.4(2) . . . . ?
B4 O3 B2 O2 0.9(4) . . . . ?
B4 O5 B5 K2 27.4(3) . . . 6_656 ?
B4 O5 B5 O6 -23.0(5) . . . . ?
B4 O5 B5 O7 158.9(3) . . . . ?
B5 O7 B6 K1 146.2(3) . . . 3_655 ?
B5 O7 B6 O9 -7.5(4) . . . . ?
B5 O7 B6 O8 172.7(3) . . . . ?
B5 O5 B4 K1 47.9(3) . . . 8_765 ?
B5 O5 B4 O4 -16.4(5) . . . . ?
B5 O5 B4 O3 163.9(3) . . . . ?
B3 K2 F2 K1 101.64(12) 8_765 . . . ?
B3 K2 F2 K1 -42.43(8) 6_556 . . . ?
B3 K2 F2 B1 131.9(2) 6_556 . . . ?
B3 K2 F2 B1 -84.1(2) 8_765 . . . ?
B3 K2 O3 B2 -86.5(2) 6_556 . . . ?
B3 K2 O3 B2 149.5(2) 8_765 . . . ?
B3 K2 O3 B4 -48.3(2) 8_765 . . . ?
B3 K2 O3 B4 75.73(17) 6_556 . . . ?
B3 K2 O5 B4 157.24(17) 8_765 . . . ?
B3 K2 O5 B4 -90.16(17) 6_556 . . . ?
B3 K2 O5 B5 93.8(2) 6_556 . . . ?
B3 K2 O5 B5 -18.8(2) 8_765 . . . ?
B3 K1 F2 K2 119.46(9) 8_755 . . . ?
B3 K1 F2 B1 -55.6(2) 8_755 . . . ?
B3 K1 F1 K2 -129.28(6) 8_755 . . 5_666 ?
B3 K1 F1 B1 120.99(16) 8_755 . . . ?
B3 K1 B1 K2 -119.42(7) 8_755 . . 5_666 ?
B3 K1 B1 F2 133.42(18) 8_755 . . . ?
B3 K1 B1 O1 36.49(19) 8_755 . . . ?
B3 K1 B1 F1 -65.46(16) 8_755 . . . ?
B3 K1 B1 O8 -161.1(2) 8_755 . . 7_576 ?
B3 O2 B2 K2 130.2(3) . . . 8_755 ?
B3 O2 B2 K1 -155.4(2) . . . 4_556 ?
B3 O2 B2 O1 -179.7(2) . . . . ?
B3 O2 B2 O3 2.9(4) . . . . ?
B3 O9 B6 K1 -69.1(6) 3_755 . . 3_655 ?
B3 O9 B6 O7 9.9(4) 3_755 . . . ?
B3 O9 B6 O8 -170.3(3) 3_755 . . . ?
B3 O6 B5 K2 100.2(2) 3_755 . . 6_656 ?
B3 O6 B5 O7 -15.7(4) 3_755 . . . ?
B3 O6 B5 O5 166.4(3) 3_755 . . . ?
B3 O4 B4 K1 95.4(2) . . . 8_765 ?
B3 O4 B4 O3 -2.7(4) . . . . ?
B3 O4 B4 O5 177.6(2) . . . . ?
B6 K1 F2 K2 -39.17(9) 3_645 . . . ?
B6 K1 F2 B1 145.75(18) 3_645 . . . ?
B6 K1 F1 K2 40.56(9) 3_645 . . 5_666 ?
B6 K1 F1 B1 -69.16(17) 3_645 . . . ?
B6 K1 B1 K2 69.21(8) 3_645 . . 5_666 ?
B6 K1 B1 F2 -37.9(2) 3_645 . . . ?
B6 K1 B1 O1 -134.87(17) 3_645 . . . ?
B6 K1 B1 F1 123.17(15) 3_645 . . . ?
B6 K1 B1 O8 27.5(3) 3_645 . . 7_576 ?
B6 O7 B5 K2 -60.7(3) . . . 6_656 ?
B6 O7 B5 O6 10.8(4) . . . . ?
B6 O7 B5 O5 -171.1(2) . . . . ?
