#------------------------------------------------------------------------------
#$Date: 2024-03-04 21:47:31 +0200 (Mon, 04 Mar 2024) $
#$Revision: 290080 $
#$URL: file:///home/coder/svn-repositories/cod/cif/7/13/26/7132674.cif $
#------------------------------------------------------------------------------
#
# This file is available in the Crystallography Open Database (COD),
# http://www.crystallography.net/
#
# All data on this site have been placed in the public domain by the
# contributors.
#
data_7132674
loop_
_publ_author_name
'Hu, Chenhui'
'Wu, Mengfan'
'Han, Jian'
'Yang, Zhihua'
'Han, Shujuan'
'Pan, Shilie'
_publ_section_title
;
 New antimony fluorooxoborates with strong birefringence and unprecedented
 structural characterisation.
;
_journal_issue                   19
_journal_name_full               'Chemical communications (Cambridge, England)'
_journal_page_first              2653
_journal_page_last               2656
_journal_paper_doi               10.1039/d3cc05784d
_journal_volume                  60
_journal_year                    2024
_chemical_formula_moiety         'B2 F O4 Sb'
_chemical_formula_sum            'B2 F O4 Sb'
_chemical_formula_weight         226.37
_space_group_crystal_system      triclinic
_space_group_IT_number           2
_space_group_name_Hall           '-P 1'
_space_group_name_H-M_alt        'P -1'
_atom_sites_solution_primary     dual
_audit_creation_date             2023-09-03
_audit_creation_method
;
Olex2 1.3
(compiled 2020.11.12 svn.r5f609507 for OlexSys, GUI svn.r6408)
;
_audit_update_record
;
2023-09-03 deposited with the CCDC.	2024-01-31 downloaded from the CCDC.
;
_cell_angle_alpha                92.888(8)
_cell_angle_beta                 95.126(7)
_cell_angle_gamma                104.803(7)
_cell_formula_units_Z            2
_cell_length_a                   4.3436(7)
_cell_length_b                   6.3169(10)
_cell_length_c                   7.0009(12)
_cell_measurement_reflns_used    2114
_cell_measurement_temperature    302.0
_cell_measurement_theta_max      25.37
_cell_measurement_theta_min      2.93
_cell_volume                     184.44(5)
_computing_cell_refinement       'SAINT V8.40B (?, 2016)'
_computing_data_reduction        'SAINT V8.40B (?, 2016)'
_computing_molecular_graphics    'Olex2 1.3 (Dolomanov et al., 2009)'
_computing_publication_material  'Olex2 1.3 (Dolomanov et al., 2009)'
_computing_structure_refinement  'SHELXL 2018/3 (Sheldrick, 2015)'
_computing_structure_solution    'XM  (Sheldrick, 2008)'
_diffrn_ambient_temperature      302.0
_diffrn_measured_fraction_theta_full 0.972
_diffrn_measured_fraction_theta_max 0.972
_diffrn_measurement_device_type  'Bruker APEX-II CCD'
_diffrn_measurement_method       '\f and \w scans'
_diffrn_radiation_type           MoK\a
_diffrn_radiation_wavelength     0.71073
_diffrn_reflns_av_R_equivalents  0.0919
_diffrn_reflns_av_unetI/netI     0.0542
_diffrn_reflns_Laue_measured_fraction_full 0.972
_diffrn_reflns_Laue_measured_fraction_max 0.972
_diffrn_reflns_limit_h_max       5
_diffrn_reflns_limit_h_min       -5
_diffrn_reflns_limit_k_max       7
_diffrn_reflns_limit_k_min       -7
_diffrn_reflns_limit_l_max       8
_diffrn_reflns_limit_l_min       -8
_diffrn_reflns_number            5133
_diffrn_reflns_point_group_measured_fraction_full 0.972
_diffrn_reflns_point_group_measured_fraction_max 0.972
_diffrn_reflns_theta_full        25.001
_diffrn_reflns_theta_max         25.001
_diffrn_reflns_theta_min         2.930
_diffrn_source_current           1.4
_diffrn_source_power             0.07
_diffrn_source_voltage           50.0
_diffrn_standards_number         0
_exptl_absorpt_coefficient_mu    7.390
_exptl_absorpt_correction_T_max  0.7456
_exptl_absorpt_correction_T_min  0.5326
_exptl_absorpt_correction_type   multi-scan
_exptl_absorpt_process_details
;
SADABS-2016/2 (Bruker,2016/2) was used for absorption correction.
wR2(int) was 0.1095 before and 0.0803 after correction.
The Ratio of minimum to maximum transmission is 0.7143.
The \l/2 correction factor is Not present.
;
_exptl_crystal_colour            'clear light colourless'
_exptl_crystal_colour_lustre     clear
_exptl_crystal_colour_modifier   light
_exptl_crystal_colour_primary    colourless
_exptl_crystal_density_diffrn    4.076
_exptl_crystal_description       block
_exptl_crystal_F_000             204
_refine_diff_density_max         2.790
_refine_diff_density_min         -1.827
_refine_diff_density_rms         0.437
_refine_ls_extinction_method     none
_refine_ls_goodness_of_fit_ref   1.169
_refine_ls_hydrogen_treatment    undef
_refine_ls_matrix_type           full
_refine_ls_number_parameters     73
_refine_ls_number_reflns         629
_refine_ls_number_restraints     12
_refine_ls_restrained_S_all      1.161
_refine_ls_R_factor_all          0.0699
_refine_ls_R_factor_gt           0.0630
_refine_ls_shift/su_max          0.000
_refine_ls_shift/su_mean         0.000
_refine_ls_structure_factor_coef Fsqd
_refine_ls_weighting_details
'w=1/[\s^2^(Fo^2^)+(0.0750P)^2^+11.2773P] where P=(Fo^2^+2Fc^2^)/3'
_refine_ls_weighting_scheme      calc
_refine_ls_wR_factor_gt          0.1626
_refine_ls_wR_factor_ref         0.1667
_reflns_Friedel_coverage         0.000
_reflns_number_gt                565
_reflns_number_total             629
_reflns_threshold_expression     'I > 2\s(I)'
_cod_data_source_file            d3cc05784d2.cif
_cod_data_source_block           1_a
_cod_depositor_comments          'Adding full bibliography for 7132674.cif.'
_cod_database_code               7132674
_shelx_shelxl_version_number     2018/3
_shelx_space_group_comment
;
The symmetry employed for this shelxl refinement is uniquely defined
by the following loop, which should always be used as a source of
symmetry information in preference to the above space-group names.
They are only intended as comments.
;
_olex2_refinement_description
;
1. Uiso/Uaniso restraints and constraints
Uanis(B1) \\sim Ueq: with sigma of 0.005 and sigma for terminal atoms of 0.01
Uanis(O3) \\sim Ueq: with sigma of 0.005 and sigma for terminal atoms of 0.01
;
_shelx_res_file
;
TITL 1_a in P-1 #2
    1_a.res
    created by SHELXL-2018/3 at 21:55:00 on 03-Sep-2023
CELL 0.71073 4.3436 6.3169 7.0009 92.888 95.126 104.803
ZERR 2 0.0007 0.001 0.0012 0.008 0.007 0.007
LATT 1
SFAC B F O Sb
UNIT 4 2 8 2
ISOR 0.005 0.01 B1
ISOR 0.005 0.01 O3

L.S. 30
PLAN  10
TEMP 28.85
CONF
MORE -1
fmap 2
acta
SHEL 999 0.84
OMIT -3 1 1
OMIT 2 -4 3
OMIT 2 2 1
OMIT -2 4 4
OMIT 1 4 0
OMIT 1 3 0
OMIT -2 -4 5
OMIT -2 -4 6
OMIT -2 0 7
OMIT -1 -5 2
OMIT 0 -5 4
OMIT 0 -5 6
OMIT -1 -5 5
REM <olex2.extras>
REM <HklSrc "%.\\1_a.hkl">
REM </olex2.extras>

WGHT    0.075000   11.277300
FVAR       0.87079
SB1   4    0.381834    0.599646    0.293026    11.00000    0.00879    0.01449 =
         0.03060    0.00190    0.00177    0.00337
B1    1    1.023831   -0.050450    0.288107    11.00000    0.01033    0.00826 =
         0.00965   -0.00129    0.00094   -0.00035
O4    3    0.349511    0.967379    0.296140    11.00000    0.00707    0.01633 =
         0.02485    0.00241    0.00046    0.00355
F1    2    0.536733    0.249384    0.095510    11.00000    0.01917    0.02660 =
         0.02741    0.00253    0.00387    0.00582
O3    3    0.825873    0.742512    0.281595    11.00000    0.02413    0.01965 =
         0.02099    0.00461   -0.00094   -0.00184
B2    1    0.610003    0.172088    0.278338    11.00000    0.02226    0.01172 =
         0.01150    0.00248    0.00625   -0.00634
O2    3    0.581470    0.345842    0.422238    11.00000    0.00427    0.01484 =
         0.02957    0.00191   -0.00121    0.00302
O1    3    0.910521    0.129968    0.292554    11.00000    0.01919    0.00985 =
         0.04801   -0.00038    0.00383    0.00871
HKLF 4




REM  1_a in P-1 #2
REM wR2 = 0.1667, GooF = S = 1.169, Restrained GooF = 1.161 for all data
REM R1 = 0.0630 for 565 Fo > 4sig(Fo) and 0.0699 for all 629 data
REM 73 parameters refined using 12 restraints

END

WGHT      0.0752     11.2587

REM Highest difference peak  2.790,  deepest hole -1.827,  1-sigma level  0.437
Q1    1   0.5989  0.3878  0.5583  11.00000  0.05    2.79
Q2    1   0.3534  0.5817  0.1499  11.00000  0.05    2.32
Q3    1   0.0454  0.4143  0.2896  11.00000  0.05    2.32
Q4    1   0.7107  0.7735  0.2863  11.00000  0.05    2.02
Q5    1   0.8405  0.3257  0.1209  11.00000  0.05    1.70
Q6    1   0.2389  1.0375  0.3009  11.00000  0.05    1.45
Q7    1   0.1703  0.4907  0.1378  11.00000  0.05    1.45
Q8    1   0.4625  0.4878  0.2980  11.00000  0.05    1.43
Q9    1   0.5419  0.7094  0.1370  11.00000  0.05    1.22
Q10   1   0.9968 -0.1727  0.2850  11.00000  0.05    1.15
;
_shelx_res_checksum              18542
_shelx_hkl_file
;
  -1   0   0 4970.70  196.98
  -1   0   0 5035.80  226.78
  -1   0   0 4889.11  195.98
  -1   0   0 5160.38  194.18
  -1   0   0 5047.90  195.58
  -1   0   0 4971.40  194.78
   1   0   0 5174.18  193.78
   1   0   0 5249.08  196.78
   1   0   0 5242.78  197.98
   1   0   0 5153.68  228.68
   1   0   0 5083.09  195.08
   1   0   0 5116.49  196.98
  -2   0   0  526.55   50.79
  -2   0   0  496.85   49.70
  -2   0   0  440.56   87.59
  -2   0   0  462.55   50.39
  -2   0   0  511.15   54.29
  -2   0   0  505.65   54.09
   2   0   0  458.85   50.09
   2   0   0  491.15   51.89
   2   0   0  410.66   51.69
   2   0   0  518.85   48.90
   2   0   0  536.05   74.09
   2   0   0  417.86   54.29
  -3   0   0 1005.80   93.29
  -3   0   0  904.71   86.29
  -3   0   0  953.60   93.29
  -3   0   0  936.21  119.69
  -3   0   0 1013.80   90.39
  -3   0   0  810.92   90.09
   3   0   0  871.81   96.99
   3   0   0 1055.99   92.39
   3   0   0  940.41   85.89
   3   0   0  942.21  124.19
   3   0   0 1014.10  175.78
   3   0   0 1023.80   93.09
   3   0   0  901.11   93.39
  -4   0   0 1772.92  163.98
  -4   0   0 1609.04  157.88
  -4   0   0 2080.79  159.38
  -4   0   0 1909.21  203.98
  -4   0   0 2180.58  164.38
  -4   0   0 2267.87  158.78
   4   0   0 1871.61  270.77
   4   0   0 2125.89  173.68
   4   0   0 1682.63  166.58
   4   0   0 2130.19  223.88
   4   0   0 2121.19  163.68
  -5   0   0 1030.00  156.78
  -5   0   0  835.02  219.18
  -5   0   0  884.81  143.29
  -5   0   0  801.52  142.49
  -5   0   0  981.90  197.28
  -5   0   0 1100.69  192.48
   5   0   0 1119.09  244.58
   5   0   0  778.42  212.68
   5   0   0  967.00  163.88
   5   0   0  734.93  166.88
   5   0   0  896.21  160.28
   5   0   0 1033.40  253.27
   5  -1   0  331.17  146.69
   5  -1   0  195.68  104.29
   5  -1   0  474.95  116.09
   5  -1   0  184.48  141.99
   5  -1   0  406.26  103.79
   5  -1   0  182.28  129.69
  -5   1   0  384.56  128.79
  -5   1   0  318.67   93.99
  -5   1   0  211.38  104.89
  -5   1   0  244.28   98.89
  -5   1   0  377.26   99.39
  -5   1   0   46.20  136.39
   4  -1   0 1432.06  125.09
   4  -1   0 1477.85  136.19
   4  -1   0 1229.18  149.29
   4  -1   0 1246.28  172.28
   4  -1   0 1412.46  133.49
  -4   1   0 1360.46  136.49
  -4   1   0 1473.65  131.89
  -4   1   0 1462.45  132.69
  -4   1   0 1339.07  130.39
  -4   1   0 1167.68  159.48
   3  -1   0 3441.36  179.98
   3  -1   0 3211.98  245.38
   3  -1   0 3272.67  181.88
   3  -1   0 3205.78  182.88
   3  -1   0 3402.56  198.48
   3  -1   0 3256.87  172.58
  -3   1   0 3144.59  179.48
  -3   1   0 3440.46  184.88
  -3   1   0 2900.31  230.48
  -3   1   0 3235.78  177.38
  -3   1   0 3407.16  179.68
   2  -1   0 2750.52  138.99
   2  -1   0 2841.42  137.69
   2  -1   0 2856.81  192.18
   2  -1   0 2787.62  140.29
   2  -1   0 2819.42  139.69
   2  -1   0 2809.62  144.39
  -2   1   0 2688.93  138.69
  -2   1   0 2940.81  144.89
  -2   1   0 2784.72  137.39
  -2   1   0 2769.62  138.79
  -2   1   0 2757.52  142.59
  -2   1   0 2712.53  184.68
   1  -1   0  277.47   28.20
   1  -1   0  259.77   30.60
   1  -1   0  299.67   27.50
   1  -1   0  260.47   26.80
   1  -1   0  334.67   42.60
   1  -1   0  232.98   26.70
  -1   1   0  266.97   27.20
  -1   1   0  300.37   28.60
  -1   1   0  227.88   26.70
  -1   1   0  276.07   27.50
  -1   1   0  273.27   29.30
  -1   1   0  332.97   42.80
   0  -1   0 1672.33   90.99
   0  -1   0 2064.69   93.09
   0  -1   0 2046.80   96.99
   0   1   0 1920.81   87.89
   0   1   0 2022.20   95.29
   0   1   0 1717.93   90.49
  -1  -1   0 7460.55  313.57
  -1  -1   0 7648.83  287.37
  -1  -1   0 7217.48  277.57
  -1  -1   0 7638.44  282.57
  -1  -1   0 8146.58  347.07
  -1  -1   0 7220.18  280.57
   1   1   0 7596.74  281.97
   1   1   0 7411.76  315.27
   1   1   0 7682.73  281.87
   1   1   0 8512.65  345.47
  -2  -1   0 3312.57  159.78
  -2  -1   0 3113.29  202.28
  -2  -1   0 3454.85  166.08
  -2  -1   0 3459.45  163.68
  -2  -1   0 3438.76  163.18
  -2  -1   0 3583.74  169.88
   2   1   0 3358.16  160.48
   2   1   0 3856.01  247.28
   2   1   0 3400.06  159.38
   2   1   0 3038.90  161.28
   2   1   0 3912.31  191.78
  -3  -1   0  995.00   87.09
  -3  -1   0  722.33  143.09
  -3  -1   0  606.24   76.49
  -3  -1   0  934.01   89.99
  -3  -1   0  790.42   89.69
  -3  -1   0  860.81   90.99
   3   1   0  732.03   85.89
   3   1   0  782.72   96.19
   3   1   0  970.10  124.89
   3   1   0  590.04   90.29
   3   1   0  909.41   92.79
   3   1   0  674.03  150.88
   3   1   0  683.93   86.59
  -4  -1   0  661.73  108.09
  -4  -1   0  724.73  102.09
  -4  -1   0  475.25  105.89
  -4  -1   0  697.73  171.08
  -4  -1   0  606.04  101.49
   4   1   0  615.54  105.89
   4   1   0  857.71  197.68
   4   1   0  428.16  137.59
   4   1   0  618.94  108.89
   4   1   0  511.85  108.09
  -5  -1   0  593.64  136.09
  -5  -1   0  647.54  145.79
  -5  -1   0  760.92  134.39
  -5  -1   0  577.34  183.28
  -5  -1   0 1029.30  174.48
   5   1   0  496.65  162.68
   5   1   0  531.85  174.48
   5   1   0  478.25  126.29
   5   1   0  959.80  264.97
   5   1   0  689.93  203.68
   5  -2   0   78.09   84.59
   5  -2   0 -146.79  115.69
   5  -2   0  -78.29  113.89
   5  -2   0   87.99   76.19
   5  -2   0  244.38   96.09
  -5   2   0  109.49   79.69
  -5   2   0  179.18   78.69
  -5   2   0  215.48   94.89
  -5   2   0   37.20  109.79
  -5   2   0   68.59   70.19
  -5   2   0 -132.89  106.59
   4  -2   0 1115.09  127.69
   4  -2   0  861.31  186.08
   4  -2   0  880.31  140.79
   4  -2   0 1085.39  111.59
   4  -2   0 1065.89  130.09
   4  -2   0 1080.09  115.59
  -4   2   0  826.12  119.29
  -4   2   0 1116.09  124.89
  -4   2   0 1081.09  127.79
  -4   2   0 1050.39  113.99
  -4   2   0 1114.29  112.29
  -4   2   0  991.30  196.38
   3  -2   0 3686.73  197.58
   3  -2   0 3777.62  194.68
   3  -2   0 3732.63  197.88
   3  -2   0 3757.62  201.58
   3  -2   0 3950.60  277.57
   3  -2   0 3879.71  199.68
  -3   2   0 3751.12  200.38
  -3   2   0 3681.03  200.38
  -3   2   0 3794.12  198.98
  -3   2   0 3703.43  265.27
  -3   2   0 4059.59  202.28
  -3   2   0 3858.21  196.48
   2  -2   0 5401.16  232.08
   2  -2   0 5222.58  226.18
   2  -2   0 5517.15  233.48
   2  -2   0 5411.06  230.28
   2  -2   0 5424.86  235.28
   2  -2   0 5403.76  296.47
  -2   2   0 5495.65  240.58
  -2   2   0 5470.95  236.98
  -2   2   0 5383.56  228.48
  -2   2   0 5394.96  232.48
  -2   2   0 5211.48  289.67
  -2   2   0 5268.27  230.68
   1  -2   0 1042.00   59.99
   1  -2   0 1124.19   88.99
   1  -2   0  898.31   85.79
   1  -2   0 1082.09   62.89
   1  -2   0 1068.09   59.39
   1  -2   0 1083.99   62.09
  -1   2   0 1132.69   87.79
  -1   2   0 1022.10   61.39
  -1   2   0 1110.59   69.09
  -1   2   0 1127.99   74.69
  -1   2   0 1105.89   90.59
  -1   2   0 1115.59   61.69
   0  -2   0   91.69   33.60
   0  -2   0   -8.00   35.30
   0  -2   0   55.49   40.60
   0   2   0   62.59   22.60
   0   2   0   45.80   26.70
   0   2   0   40.60   28.20
  -1  -2   0 1643.74  170.48
  -1  -2   0 1686.33   86.69
  -1  -2   0 1678.13  111.49
  -1  -2   0 1653.63   84.89
   1   2   0 1729.93   85.49
   1   2   0 1687.13   82.19
   1   2   0 1934.31  146.49
   1   2   0 1767.42  110.89
  -2  -2   0 3315.27  159.28
  -2  -2   0 3343.57  162.08
  -2  -2   0 3187.58  203.88
  -2  -2   0 3195.58  164.88
   2   2   0 3309.97  160.28
   2   2   0 3441.36  253.67
   2   2   0 3224.78  156.18
   2   2   0 3152.98  207.08
  -3  -2   0  147.99   64.49
  -3  -2   0  105.89   47.10
  -3  -2   0  214.48   52.59
  -3  -2   0   81.79   40.20
  -3  -2   0  190.08   54.59
   3   2   0  171.58   50.19
   3   2   0  154.88   91.69
   3   2   0  208.28   81.49
  -4  -2   0  149.69   90.39
  -4  -2   0   47.30   49.99
  -4  -2   0  -28.30   68.59
   4   2   0   96.19   67.69
   4   2   0  -76.49   80.69
   4   2   0    4.30   34.70
   4   2   0  -18.30   88.79
   4   2   0   64.69  113.49
   5  -3   0 1229.08  287.57
   5  -3   0  806.22  161.38
   5  -3   0  837.52  150.08
   5  -3   0 1030.80  148.69
   5  -3   0  933.31  160.18
   5  -3   0  936.31  186.98
  -5   3   0 1106.19  149.09
  -5   3   0 1050.79  186.78
  -5   3   0 1340.57  179.38
  -5   3   0 1099.79  209.08
  -5   3   0  964.40  235.28
   4  -3   0  192.68   57.99
   4  -3   0  266.57   67.89
   4  -3   0  203.88  103.89
   4  -3   0  107.49   71.89
   4  -3   0  283.67   90.39
   4  -3   0  318.57   77.19
  -4   3   0  223.98   94.49
  -4   3   0  239.78   74.59
  -4   3   0  179.98   59.69
  -4   3   0  407.76   88.09
  -4   3   0  205.08   63.69
  -4   3   0  170.88   74.49
   3  -3   0  680.43   79.49
   3  -3   0  590.14  133.39
   3  -3   0  677.63   77.59
   3  -3   0  758.72   77.99
   3  -3   0  576.24   81.89
   3  -3   0  690.93   93.39
  -3   3   0  734.73   86.99
  -3   3   0  677.53   84.19
  -3   3   0  651.63   78.39
  -3   3   0  810.02   93.19
  -3   3   0  662.23  143.79
  -3   3   0  495.55   80.69
   2  -3   0 2500.25  130.39
   2  -3   0 1992.00  173.38
   2  -3   0 2443.46  133.19
   2  -3   0 2491.95  129.69
   2  -3   0 2104.49  175.08
  -2   3   0 2478.45  131.39
  -2   3   0 2316.97  127.39
  -2   3   0 2543.35  137.59
  -2   3   0 2477.85  182.78
   1  -3   0 5527.65  234.88
   1  -3   0 5675.53  235.48
   1  -3   0 6109.49  293.07
  -1   3   0 6432.16  257.27
  -1   3   0 5710.43  237.18
  -1   3   0 6254.17  288.47
  -1   3   0 6114.99  236.68
  -1   3   0 6704.73  306.17
  -1   3   0 6553.74  272.27
   0  -3   0  666.93   49.10
   0  -3   0  580.24  129.09
   0  -3   0  667.23   80.99
   0   3   0  739.73   65.79
   0   3   0  693.93   88.59
   0   3   0  749.62   85.99
  -1  -3   0 1272.57  208.58
   1   3   0 1460.35  136.89
   1   3   0 1812.62  160.58
   1   3   0 1562.14  109.49
  -2  -3   0 1416.76   96.79
  -2  -3   0 1526.95  100.79
  -2  -3   0 1218.08  147.49
   2   3   0 1387.26   91.99
   2   3   0 1313.97  176.58
   2   3   0 1490.65  140.09
  -3  -3   0 1486.75  127.59
  -3  -3   0 1839.32  139.49
   3   3   0 1394.36  126.19
   3   3   0 1292.97  229.18
   3   3   0 1527.75  209.48
  -4  -3   0  277.07   82.79
  -4  -3   0  196.08  116.09
   4   3   0   55.39   89.59
   4   3   0   98.09  104.59
   4   3   0   -4.80   78.19
   4   3   0  185.08  144.79
   5  -4   0  721.63  168.28
   5  -4   0  960.40  150.88
   5  -4   0  727.93  157.28
   5  -4   0 1148.19  150.68
   5  -4   0  517.65  188.28
  -5   4   0  652.83  305.27
  -5   4   0  816.52  161.48
  -5   4   0  936.01  200.98
  -5   4   0  766.92  163.08
  -5   4   0  944.11  169.18
   4  -4   0 1133.19  153.98
   4  -4   0  807.52  106.19
   4  -4   0  847.42  203.78
   4  -4   0 1001.20  142.09
   4  -4   0  747.43  105.09
  -4   4   0  675.43  116.69
  -4   4   0  626.34  122.39
  -4   4   0  632.24  108.99
  -4   4   0  667.23  165.68
  -4   4   0  747.23  126.09
   3  -4   0   39.90   32.40
   3  -4   0   28.90   29.40
   3  -4   0   80.89   39.70
   3  -4   0  -52.29   43.70
  -3   4   0   26.90   37.60
  -3   4   0  -86.09   51.69
  -3   4   0   70.89   46.70
  -3   4   0   17.30   57.19
  -3   4   0   46.10   38.90
   2  -4   0 1062.39  139.99
   2  -4   0 1000.50  157.58
   2  -4   0 1061.69   81.09
   2  -4   0 1140.49   85.39
   2  -4   0 1134.99   84.89
   2  -4   0 1173.48   91.29
  -2   4   0 1007.70   84.09
  -2   4   0 1133.89   85.49
  -2   4   0 1044.10   93.69
  -2   4   0 1073.19  102.49
  -2   4   0 1129.09  131.39
  -2   4   0 1073.29  131.39
   1  -4   0 1954.10  101.39
   1  -4   0 2021.50  158.08
   1  -4   0 1708.63  299.27
   1  -4   0 1819.72  100.59
  -1   4   0 1730.73  103.09
  -1   4   0 1936.71  100.49
  -1   4   0 1949.80  141.49
  -1   4   0 2020.10  142.29
  -1   4   0 1949.41  123.59
   0  -4   0 1394.76  266.57
   0  -4   0 1502.05  230.98
   0   4   0 1322.47  103.09
   0   4   0 1289.77  136.19
   0   4   0 1473.15  136.09
   1   4   0  886.01   82.99
   1   4   0  707.43   96.49
   1   4   0  914.01  130.89
   1   4   0  943.91  138.19
  -2  -4   0  272.17   62.09
  -2  -4   0  471.45   77.49
   2   4   0  379.56   91.79
   2   4   0  367.26  110.99
  -3  -4   0 1116.59  118.69
  -3  -4   0 1024.20  136.69
   3   4   0 1260.37  149.69
   3   4   0 1090.29  212.78
  -4  -4   0  691.63  168.98
  -4  -4   0  790.32  140.89
   4   4   0  492.65  201.68
   5  -5   0  888.01  152.28
   5  -5   0  586.74  128.29
   5  -5   0  767.22  245.48
   5  -5   0  382.86  176.78
   5  -5   0  908.41  211.98
  -5   5   0  619.54  208.78
  -5   5   0  681.63  211.48
  -5   5   0  815.62  175.78
  -5   5   0  931.31  171.68
  -5   5   0  624.04  139.19
  -5   5   0  638.74  192.58
   4  -5   0 1579.94  177.68
   4  -5   0 1494.25  192.98
   4  -5   0 1274.17  137.09
   4  -5   0 2074.69  434.06
  -4   5   0 1321.77  144.69
  -4   5   0 1401.66  150.18
  -4   5   0 1153.48  166.38
  -4   5   0  998.80  350.96
  -4   5   0 1339.37  166.08
   3  -5   0 1251.37  117.49
   3  -5   0 1298.47  120.69
   3  -5   0 1201.08  132.59
   3  -5   0 1272.57  108.99
  -3   5   0 1165.28  169.08
  -3   5   0 1514.65  133.29
  -3   5   0 1314.27  130.69
  -3   5   0 1167.38  152.18
  -3   5   0 1249.68  112.49
   2  -5   0  101.49   58.49
   2  -5   0   88.89   36.90
   2  -5   0  178.08   43.70
  -2   5   0  118.59   58.69
  -2   5   0  126.39   40.20
  -2   5   0  108.09   49.30
  -2   5   0  108.59   52.79
  -2   5   0  129.19   47.30
  -2   5   0   97.89   53.69
   1  -5   0 1099.89   83.39
   1  -5   0 1016.40   75.69
   1  -5   0  991.20  173.18
  -1   5   0 1004.50  119.89
  -1   5   0  896.51  130.59
  -1   5   0 1023.40  104.29
   0   5   0 1610.24  123.89
   0   5   0 1944.51  173.58
   1   5   0 1160.08  119.09
   1   5   0 1315.87  178.28
   1   5   0 1518.55  115.49
   2   5   0   50.49   45.70
   2   5   0  -71.89   86.19
   2   5   0   -1.40   35.00
  -3  -5   0  317.27   99.39
  -3  -5   0  595.04  113.79
   3   5   0  430.96  162.58
   3   5   0  335.17  133.19
   3   5   0  724.83  182.18
   4  -6   0  681.53  143.09
   4  -6   0  941.51  169.58
   4  -6   0  494.35  177.78
   4  -6   0  609.44  118.99
   4  -6   0  895.11  125.49
  -4   6   0  598.54  124.19
  -4   6   0  452.55  170.58
  -4   6   0  339.57  122.19
  -4   6   0  624.44  121.49
   3  -6   0 1180.68  144.99
   3  -6   0 1006.40  118.39
   3  -6   0  668.13  176.68
   3  -6   0 1007.00  134.39
  -3   6   0  886.51  125.89
  -3   6   0  753.32  139.19
  -3   6   0 1090.29  114.69
  -3   6   0  914.21  185.88
   2  -6   0  707.43   87.79
   2  -6   0  741.33   96.79
  -2   6   0  480.25   92.19
  -2   6   0  699.43  138.09
  -2   6   0  640.64  148.59
  -2   6   0  596.74  102.69
  -2   6   0  670.53   83.89
   1  -6   0   55.09   37.40
   1  -6   0   70.99   55.89
  -1   6   0   57.09   55.69
  -1   6   0  127.89   54.09
   0   6   0  821.02   86.39
   0   6   0  892.51  152.18
   1   6   0 1051.79  198.78
   2   6   0  288.37  138.09
   4  -7   0  174.58  116.09
   4  -7   0  117.09  209.38
   4  -7   0  265.57   93.89
   4  -7   0  178.58  158.28
   4  -7   0  252.47   95.29
  -4   7   0  491.95  186.58
  -4   7   0  149.29  104.89
  -4   7   0  183.28  100.29
  -4   7   0  282.07  104.49
   3  -7   0  256.67  113.89
   3  -7   0  503.85  116.79
   3  -7   0  751.42  123.19
  -3   7   0  574.14  151.68
  -3   7   0  764.12  125.19
  -3   7   0  518.85  136.49
  -3   7   0  442.06  108.19
   2  -7   0  536.75  156.28
   2  -7   0  789.72  104.79
   2  -7   0  789.32  130.79
  -2   7   0  981.30  164.38
  -2   7   0  598.74  128.89
  -2   7   0  860.61  150.38
  -1   7   0  196.68   87.19
  -1   7   0  272.37   77.39
   1   7   0  109.69  123.89
   2  -8   0  382.16  170.88
   2  -8   0  552.84  100.69
   2  -8   0  558.54  126.79
  -2   8   0  529.15  126.79
  -1   8   0  605.34  150.28
   2  -8   1   36.20   57.19
   1   7  -1  177.58  120.59
   0   7  -1  705.33  225.18
  -1   7  -1 1044.50  162.48
  -2   7  -1  391.26  102.49
  -2   7  -1  290.67   95.29
  -2   7  -1  385.16  117.89
   2  -7   1  292.27  109.19
  -3   7  -1 -205.88  124.19
  -3   7  -1   64.19   77.59
  -3   7  -1   23.70   41.20
  -3   7  -1   30.60   70.19
   3  -7   1  159.98   96.79
   3  -7   1   29.30   56.69
  -4   7  -1  460.25  120.89
  -4   7  -1  216.58  110.59
  -4   7  -1  559.64  179.18
  -4   7  -1  146.59  190.78
  -4   7  -1  410.96  148.59
   4  -7   1  532.75  174.88
   4  -7   1  557.74  120.09
   2   6  -1  733.83  175.48
   1   6  -1   39.80  100.69
  -1   6  -1 1287.27  145.49
  -2   6  -1 2156.58  169.28
  -2   6  -1 2194.98  216.18
   2  -6   1 2115.59  137.19
   2  -6   1 1902.21  139.79
  -3   6  -1  307.77  105.39
  -3   6  -1  431.86  120.59
  -3   6  -1  268.97   86.99
  -3   6  -1  351.36   90.29
  -3   6  -1  245.98   73.29
   3  -6   1  318.97  100.29
   3  -6   1  364.36   78.69
   3  -6   1  240.88  100.19
   3  -6   1  362.36   87.69
  -4   6  -1  135.49   88.29
  -4   6  -1   69.69   69.79
  -4   6  -1   74.39   80.69
  -4   6  -1   96.89   74.39
   4  -6   1  285.07  200.18
   4  -6   1   -7.30  136.49
   4  -6   1   79.09   71.49
   4  -6   1    8.20   40.10
   4  -6   1  113.19   70.29
   3   5  -1  264.17  158.28
   3   5  -1  291.57   91.79
   2   5  -1 1124.99  204.38
   1   5  -1 1523.35  189.88
  -1   5  -1  905.91  113.39
  -1   5  -1  909.41   86.79
  -1   5  -1  954.30  127.99
  -1   5  -1  828.22  100.39
   1  -5   1  759.42  214.78
   1  -5   1  801.62  100.29
  -2   5  -1 1915.61  162.88
  -2   5  -1 1888.61  180.88
  -2   5  -1 1748.03  143.89
  -2   5  -1 1487.05  110.19
  -2   5  -1 1762.02  112.19
   2  -5   1 1790.52  115.59
   2  -5   1 1732.43  114.39
  -3   5  -1 2085.69  170.58
  -3   5  -1 2237.98  209.98
  -3   5  -1 2278.17  150.58
   3  -5   1 1903.71  158.68
   3  -5   1 2360.76  148.39
   3  -5   1 2174.18  152.18
  -4   5  -1  451.05  115.49
  -4   5  -1  650.43  121.29
  -4   5  -1  552.44  157.38
  -4   5  -1  470.65  106.29
   4  -5   1  580.64  108.69
   4  -5   1  513.25  123.69
   4  -5   1  560.94  136.59
   4  -5   1  473.15  152.48
  -5   5  -1  213.78  189.18
  -5   5  -1   20.40   79.59
  -5   5  -1   -7.80   37.10
  -5   5  -1  124.49   96.49
  -5   5  -1  -33.20  170.88
   5  -5   1    8.10   45.90
   5  -5   1  -28.00   85.29
   5  -5   1  118.79   84.79
   5  -5   1  181.78  205.98
   5  -5   1 -222.38  175.18
   4   4  -1  111.99  102.29
   4   4  -1  263.87  173.78
  -4  -4   1  164.58  109.69
  -4  -4   1  124.49  117.19
  -4  -4   1  279.27   91.89
   3   4  -1  -47.40  107.19
   3   4  -1   -0.80   25.20
  -3  -4   1  -39.90   49.20
   2   4  -1  941.91   95.59
   2   4  -1 1254.17  196.48
   1   4  -1 2596.44  217.38
   0   4  -1 1500.35  143.09
   0   4  -1 1700.53  137.39
  -1   4  -1  249.48   57.89
  -1   4  -1  254.57   69.29
  -1   4  -1  260.87   61.29
  -1   4  -1  345.97   67.99
   1  -4   1  353.06   37.50
   1  -4   1  414.56   77.79
   1  -4   1  317.27   60.89
   1  -4   1  135.79  112.19
   1  -4   1  235.68  106.89
  -2   4  -1  932.71  119.49
  -2   4  -1  876.61  104.69
  -2   4  -1 1001.20   94.29
  -2   4  -1  768.22   78.29
  -2   4  -1  951.70   78.09
   2  -4   1  860.61   73.79
   2  -4   1  638.14  150.28
   2  -4   1  813.92   76.69
   2  -4   1  804.82  104.89
   2  -4   1  983.90   87.39
   2  -4   1  924.91   72.89
  -3   4  -1 1175.48  102.09
  -3   4  -1  919.41  105.39
  -3   4  -1  756.22  111.29
  -3   4  -1  841.12  103.39
  -3   4  -1  826.02  105.79
  -3   4  -1  966.30  132.29
  -3   4  -1 1210.08  149.09
   3  -4   1 1106.39  101.69
   3  -4   1 1087.89  197.08
   3  -4   1 1081.29  117.99
   3  -4   1  923.31  103.19
   3  -4   1 1180.58   97.09
  -4   4  -1 1323.47  250.87
  -4   4  -1 1188.98  159.48
  -4   4  -1 1241.28  152.08
  -4   4  -1 1312.77  144.79
  -4   4  -1 1299.37  140.69
   4  -4   1 1126.89  162.18
   4  -4   1 1316.27  127.29
   4  -4   1 1372.76  185.68
   4  -4   1 1313.87  132.49
  -5   4  -1   48.20  145.19
  -5   4  -1   42.50   58.99
  -5   4  -1  250.97  163.18
  -5   4  -1  230.08  111.39
   5  -4   1  123.89  106.09
   5  -4   1  212.38  174.98
   5  -4   1   14.90  241.38
   5  -4   1  159.18   89.99
   5  -4   1 -164.88  143.39
   5  -4   1   86.09   83.79
   4   3  -1  878.81  162.78
   4   3  -1 1371.76  149.09
   4   3  -1 1410.86  178.38
   4   3  -1 1020.50  236.68
   4   3  -1 1002.70  163.48
  -4  -3   1 1329.47  143.59
  -4  -3   1 1588.54  176.38
  -4  -3   1 1169.58  211.38
   3   3  -1  790.92  173.48
   3   3  -1  721.23   89.69
   3   3  -1  697.13   92.69
   3   3  -1  871.01  116.19
  -3  -3   1  973.20  122.39
  -3  -3   1  753.72   91.89
   2   3  -1  166.48   88.99
   2   3  -1  226.48   58.79
  -2  -3   1  325.57   73.29
  -2  -3   1  167.18  267.77
  -2  -3   1  314.17   47.40
  -1  -3   1 2989.00  158.18
  -1  -3   1 2529.95  259.27
   0   3  -1 4153.88  223.08
   0   3  -1 4264.47  210.58
   0   3  -1 4341.07  197.28
   0  -3   1 4100.49  189.28
   0  -3   1 3932.41  251.67
  -1   3  -1 3618.74  174.88
  -1   3  -1 3114.39  139.89
  -1   3  -1 3534.55  182.48
  -1   3  -1 3441.36  174.58
  -1   3  -1 3377.56  198.68
   1  -3   1 3507.25  209.18
   1  -3   1 3430.26  183.68
   1  -3   1 3453.35  201.18
   1  -3   1 2970.80  204.28
   1  -3   1 3232.38  163.38
   1  -3   1 3273.17  143.59
   1  -3   1 3451.95  145.09
  -2   3  -1  139.69   39.90
  -2   3  -1  261.07   45.80
  -2   3  -1  151.38   49.30
  -2   3  -1  174.98   39.70
  -2   3  -1  262.97   43.30
  -2   3  -1  184.08   68.69
   2  -3   1  207.78   48.40
   2  -3   1  211.58   64.89
   2  -3   1  266.27   46.30
   2  -3   1  132.19   38.90
   2  -3   1  284.17   86.69
   2  -3   1  349.27   60.69
  -3   3  -1 1408.06  115.59
  -3   3  -1 1523.45  125.89
  -3   3  -1 1417.06  121.19
  -3   3  -1 1280.87  116.99
   3  -3   1 1667.63  295.07
   3  -3   1 1439.76  113.39
   3  -3   1 1447.56  110.19
   3  -3   1 1582.74  129.19
   3  -3   1 1557.54  119.49
   3  -3   1 1415.16  113.29
  -4   3  -1  606.44  159.28
  -4   3  -1  641.24  114.79
  -4   3  -1  643.44  107.69
  -4   3  -1  818.72  111.09
  -4   3  -1  780.22  145.39
  -4   3  -1  859.21  131.59
   4  -3   1  881.81  200.78
   4  -3   1  823.92  138.39
   4  -3   1  907.21  105.29
   4  -3   1  999.90  112.99
   4  -3   1  702.93  124.29
  -5   3  -1  203.38  238.18
  -5   3  -1  867.81  158.08
  -5   3  -1  936.91  195.68
  -5   3  -1  880.01  223.68
  -5   3  -1  851.41  144.49
  -5   3  -1  675.23  156.48
   5  -3   1  486.95  118.49
   5  -3   1  496.95  228.38
   5  -3   1  859.31  137.79
   5  -3   1  641.14  185.08
   5  -3   1  588.34  149.09
   4   2  -1 1757.92  161.58
   4   2  -1 2058.69  216.98
   4   2  -1 2090.39  301.07
   4   2  -1 2177.18  238.98
  -4  -2   1 1414.56  181.48
  -4  -2   1 1795.02  187.48
  -4  -2   1 1983.00  177.68
   3   2  -1 2003.30  148.99
   3   2  -1 2080.49  186.78
   3   2  -1 2504.95  142.99
   3   2  -1 2061.39  132.89
  -3  -2   1 2062.69  140.19
  -3  -2   1 2108.89  184.08
  -3  -2   1 1991.00  142.49
  -3  -2   1 2191.68  139.09
   2   2  -1 2437.76  208.58
   2   2  -1 2159.28  114.09
   2   2  -1 2094.39  124.79
   2   2  -1 1981.90  108.09
   2   2  -1 2201.38  158.28
  -2  -2   1 2188.28  116.69
  -2  -2   1 2205.58  152.38
   1   2  -1  427.96   82.89
   1   2  -1  413.56   41.60
  -1  -2   1  347.17   42.70
  -1  -2   1  235.48   79.19
   0   2  -1 2640.54  146.29
   0   2  -1 2990.30  136.29
   0  -2   1 2836.92  132.89
   0  -2   1 2783.72  158.58
  -1   2  -1 5882.81  229.18
  -1   2  -1 6355.76  251.17
  -1   2  -1 6070.89  272.67
  -1   2  -1 5961.70  229.28
  -1   2  -1 6061.69  269.47
   1  -2   1 5597.44  228.78
   1  -2   1 6003.90  230.48
   1  -2   1 5975.00  256.87
   1  -2   1 6082.09  245.58
   1  -2   1 5666.53  270.97
   1  -2   1 6275.27  273.57
  -2   2  -1 1622.64  108.09
  -2   2  -1 1994.20  108.69
  -2   2  -1 1704.93  104.09
  -2   2  -1 1729.43  105.59
  -2   2  -1 1890.61  149.79
  -2   2  -1 1906.51  114.59
   2  -2   1 1801.82  104.39
   2  -2   1 1657.03  103.99
   2  -2   1 1721.23  110.09
   2  -2   1 1798.62  106.49
   2  -2   1 1728.03  147.49
  -3   2  -1   46.20   41.20
  -3   2  -1  143.39   65.89
  -3   2  -1   54.39   35.70
  -3   2  -1   -6.40   37.50
  -3   2  -1  121.09   46.30
  -3   2  -1   74.49   35.70
   3  -2   1   48.00   33.30
   3  -2   1   63.09   39.20
   3  -2   1   55.79   37.20
   3  -2   1   78.69   51.19
   3  -2   1   15.10   37.40
   3  -2   1   56.29   46.50
  -4   2  -1  807.22  105.59
  -4   2  -1  717.43  113.59
  -4   2  -1  866.01  124.09
  -4   2  -1  877.51  109.89
  -4   2  -1 1006.70  249.58
   4  -2   1  548.25  106.19
   4  -2   1 1031.30  224.68
   4  -2   1  623.74  118.49
   4  -2   1  830.02  109.29
   4  -2   1  757.92  102.19
   4  -2   1  799.52  146.69
  -5   2  -1  732.23  164.78
  -5   2  -1  651.33  157.28
  -5   2  -1  938.51  167.88
  -5   2  -1  845.12  140.79
  -5   2  -1  871.11  206.98
  -5   2  -1  865.01  142.19
   5  -2   1  930.81  153.38
   5  -2   1  986.40  237.18
   5  -2   1 1344.17  207.58
   5  -2   1 1074.89  153.78
   5  -2   1  620.34  240.18
   5   1  -1   21.40  176.28
   5   1  -1 -223.38  145.69
   5   1  -1   11.40  135.99
   5   1  -1   50.89   87.79
   5   1  -1   -6.10   39.30
  -5  -1   1  121.69   78.39
  -5  -1   1   63.49  144.49
  -5  -1   1  113.49  114.69
  -5  -1   1   12.40   73.89
  -5  -1   1   28.80   52.09
  -5  -1   1  -53.09   84.19
   4   1  -1  315.07  111.99
   4   1  -1  322.67   82.39
   4   1  -1  379.96  150.18
   4   1  -1  529.05  102.59
  -4  -1   1  158.28   71.89
  -4  -1   1  267.97   82.59
  -4  -1   1  505.75   97.89
  -4  -1   1  227.78   84.69
  -4  -1   1  445.46   86.19
  -4  -1   1  335.67  112.09
   3   1  -1 2785.22  156.38
   3   1  -1 2487.85  161.58
   3   1  -1 2543.05  251.07
   3   1  -1 2474.65  145.79
   3   1  -1 2201.98  144.99
  -3  -1   1 2534.55  148.59
  -3  -1   1 2490.85  151.38
  -3  -1   1 2535.35  154.68
  -3  -1   1 2045.80  187.18
  -3  -1   1 2506.55  145.69
  -3  -1   1 2584.04  152.58
   2   1  -1 3822.32  228.28
   2   1  -1 3891.91  176.88
   2   1  -1 4398.96  270.17
   2   1  -1 4193.78  184.08
   2   1  -1 4003.20  190.18
  -2  -1   1 4074.29  181.18
  -2  -1   1 3894.01  179.28
  -2  -1   1 3985.90  228.88
  -2  -1   1 4129.99  190.88
   1   1  -1 1776.52   86.09
   1   1  -1 1645.04   73.39
   1   1  -1 1707.23   98.99
   1   1  -1 1712.33   76.69
   1   1  -1 1688.33  123.59
  -1  -1   1 1599.24  136.49
  -1  -1   1 1662.53   97.49
  -1  -1   1 1679.73   85.59
  -1  -1   1 1457.45   73.99
  -1  -1   1 1569.44   74.49
   0   1  -1  306.17   37.30
   0   1  -1  311.67   32.40
   0  -1   1  340.27   34.00
   0  -1   1  297.37   40.00
  -1   1  -1 1694.33   82.49
  -1   1  -1 1681.33  110.79
  -1   1  -1 1771.42   85.49
  -1   1  -1 1749.03   84.39
  -1   1  -1 1647.54   84.99
  -1   1  -1 1729.03   89.79
   1  -1   1 1653.23   81.79
   1  -1   1 1675.63   86.19
   1  -1   1 1765.32  118.99
   1  -1   1 1736.53   88.99
   1  -1   1 1773.22   85.29
  -2   1  -1 1163.48   81.59
  -2   1  -1 1195.38  115.99
  -2   1  -1 1282.77   89.49
  -2   1  -1 1247.48   86.19
  -2   1  -1 1279.07  102.09
  -2   1  -1 1255.77  112.59
   2  -1   1 1266.77   83.69
   2  -1   1 1239.88   82.09
   2  -1   1 1203.28   90.29
   2  -1   1 1251.37  120.59
   2  -1   1 1240.18   85.79
   2  -1   1 1316.07  116.39
  -3   1  -1 1162.18  103.79
  -3   1  -1 1266.97  103.69
  -3   1  -1 1109.69  100.79
  -3   1  -1  951.50  124.39
  -3   1  -1 1165.98   98.09
  -3   1  -1 1168.78   97.89
   3  -1   1  908.31   96.39
   3  -1   1 1188.88  108.79
   3  -1   1 1047.20  101.49
   3  -1   1 1140.99   91.59
   3  -1   1 1273.17  147.59
   3  -1   1 1255.57  102.29
  -4   1  -1   72.69   49.10
  -4   1  -1   19.00   58.89
  -4   1  -1   83.69   48.10
  -4   1  -1  112.39   73.59
  -4   1  -1   -6.80   55.19
  -4   1  -1   66.89   75.49
   4  -1   1  227.28   93.89
   4  -1   1  140.59   68.29
   4  -1   1   36.70   55.19
   4  -1   1   57.59   52.99
   4  -1   1   87.99   69.99
  -5   1  -1  449.66  114.19
  -5   1  -1  243.18  131.29
  -5   1  -1  516.45  188.18
  -5   1  -1  509.35  104.39
  -5   1  -1  497.75  123.49
  -5   1  -1  286.27  143.09
   5  -1   1  250.87  161.68
   5  -1   1  362.36  119.09
   5  -1   1  595.34  194.58
   5  -1   1  386.16  109.69
   5   0  -1  922.31  158.98
   5   0  -1  446.56  179.88
   5   0  -1  914.71  161.18
   5   0  -1  966.30  246.58
   5   0  -1  679.13  180.98
  -5   0   1 1094.79  188.18
  -5   0   1  922.41  156.08
  -5   0   1  772.52  134.79
  -5   0   1  659.33  147.99
  -5   0   1  609.54  172.68
  -5   0   1  815.02  138.39
   4   0  -1  236.18  100.79
   4   0  -1  520.75  140.39
   4   0  -1  349.47   72.59
   4   0  -1  396.96  149.39
   4   0  -1  363.26   86.99
   4   0  -1  547.45   98.49
  -4   0   1  443.66  134.19
  -4   0   1  276.07   74.09
  -4   0   1  441.86   86.89
  -4   0   1  553.04   98.09
  -4   0   1  276.07   69.39
  -4   0   1  438.16   83.79
   3   0  -1  588.84   71.29
   3   0  -1  566.24   68.49
   3   0  -1  538.45  122.49
   3   0  -1  492.85   73.49
   3   0  -1  520.95   68.29
   3   0  -1  553.24   72.89
  -3   0   1  415.06   64.09
  -3   0   1  536.75  126.69
  -3   0   1  494.95   70.49
  -3   0   1  398.56   61.59
  -3   0   1  539.85   70.69
  -3   0   1  406.26   62.89
   2   0  -1 5129.59  274.97
   2   0  -1 5172.78  216.58
   2   0  -1 5227.28  218.88
   2   0  -1 5142.59  214.78
  -2   0   1 4899.11  217.38
  -2   0   1 4864.61  214.48
  -2   0   1 5073.69  215.98
  -2   0   1 4979.30  213.48
  -2   0   1 5194.38  223.88
  -2   0   1 4986.70  269.87
   1   0  -1 1914.41   86.79
   1   0  -1 2026.90   92.99
   1   0  -1 1996.00   88.49
   1   0  -1 1933.11   87.79
   1   0  -1 1901.61   88.19
  -1   0   1 2025.70   93.69
  -1   0   1 1840.22  112.49
  -1   0   1 1926.71   88.09
  -1   0   1 1977.40   87.49
  -1   0   1 1989.40   88.99
  -1   0   1 1995.10   87.99
   0   0  -1 1366.06   62.59
   0   0  -1 1387.86   62.09
   0   0  -1 1444.16   65.29
   0   0  -1 1351.86   60.39
   0   0  -1 1313.37   96.79
   0   0  -1 1318.97   59.29
   0   0   1 1475.65   91.29
   0   0   1 1329.87   59.99
   0   0   1 1373.46   61.19
   0   0   1 1377.76   64.59
   0   0   1 1307.07   61.89
  -1   0  -1  571.24   45.20
  -1   0  -1  587.24   43.20
  -1   0  -1  514.35   40.00
  -1   0  -1  496.55   44.60
  -1   0  -1  524.35   43.80
  -1   0  -1  654.53   62.59
   1   0   1  553.04   43.00
   1   0   1  626.44   68.19
   1   0   1  546.55   43.70
   1   0   1  552.84   43.10
   1   0   1  629.54   62.89
   1   0   1  562.74   42.40
   1   0   1  584.14   45.70
  -2   0  -1 4724.13  207.08
  -2   0  -1 4667.93  212.78
  -2   0  -1 4620.94  265.57
  -2   0  -1 4548.65  210.28
  -2   0  -1 4665.53  208.88
  -2   0  -1 4854.31  217.08
   2   0   1 4614.34  212.68
   2   0   1 4818.42  215.68
   2   0   1 4996.70  216.28
   2   0   1 5138.09  279.57
   2   0   1 4712.83  214.28
   2   0   1 3980.40  201.58
   2   0   1 4810.32  272.67
  -3   0  -1 2063.39  140.19
  -3   0  -1 1988.00  131.69
  -3   0  -1 1891.41  133.59
  -3   0  -1 1941.01  181.48
  -3   0  -1 1955.40  156.68
  -3   0  -1 2077.89  140.99
   3   0   1 2057.09  193.18
   3   0   1 1986.30  221.78
   3   0   1 2168.28  135.09
   3   0   1 2191.28  148.49
   3   0   1 1953.80  136.69
   3   0   1 1825.02  140.79
   3   0   1 2039.90  136.99
  -4   0  -1   74.19   47.90
  -4   0  -1  121.59   79.49
  -4   0  -1   95.19   80.19
  -4   0  -1  192.78   66.59
  -4   0  -1  188.38   73.39
  -4   0  -1  248.78   66.79
   4   0   1  145.69  106.29
   4   0   1  216.78   71.49
   4   0   1   35.00   74.79
   4   0   1  225.48  100.79
   4   0   1  172.38   90.39
   4   0   1  184.48   69.19
  -5   0  -1   24.60   77.19
  -5   0  -1   70.49  102.99
  -5   0  -1  165.18  101.49
  -5   0  -1   71.49   71.49
  -5   0  -1  212.98  139.89
  -5   0  -1  270.77  148.59
   5   0   1  247.68   96.79
   5   0   1   52.89  170.18
   5   0   1  -33.50  145.99
   5   0   1  104.79  144.19
   5   0   1  185.18  106.89
   5   0   1   53.29   90.19
   5  -1  -1 1160.18  148.29
   5  -1  -1  956.80  258.77
   5  -1  -1 1242.78  158.58
   5  -1  -1 1334.87  210.08
   5  -1  -1  830.42  157.58
   5  -1  -1  951.10  226.98
  -5   1   1  853.61  153.38
  -5   1   1  812.72  173.68
  -5   1   1 1218.58  248.38
  -5   1   1 1074.79  142.59
  -5   1   1 1022.80  142.89
   4  -1  -1  586.74  117.69
   4  -1  -1 1117.19  221.98
   4  -1  -1  775.42  121.59
   4  -1  -1  897.81  102.39
   4  -1  -1 1055.59  109.99
  -4   1   1  817.92  109.89
  -4   1   1  755.82   98.29
  -4   1   1  829.02  170.18
  -4   1   1  967.60  110.89
  -4   1   1  795.62  113.79
  -4   1   1  615.64  105.19
   3  -1  -1  473.05  104.89
  -3   1   1  457.25  102.19
   2  -1  -1  291.07   40.70
   2  -1  -1  196.68   34.60
   2  -1  -1  389.26   89.79
   2  -1  -1  296.97   40.60
   2  -1  -1  266.67   36.80
   2  -1  -1  254.97   40.90
   2  -1  -1  271.67   43.00
  -2   1   1  399.56   88.69
  -2   1   1  302.17   40.70
  -2   1   1  257.57   38.70
  -2   1   1  293.87   40.00
  -2   1   1  250.07   41.70
  -2   1   1  299.57   40.00
   1  -1  -1 3079.59  130.59
   1  -1  -1 2897.91  129.29
   1  -1  -1 3063.29  130.49
   1  -1  -1 3161.08  131.09
   1  -1  -1 3190.38  171.38
   1  -1  -1 3145.99  128.99
  -1   1   1 3186.68  132.49
  -1   1   1 3060.69  127.99
  -1   1   1 3345.37  171.68
  -1   1   1 3086.29  130.99
  -1   1   1 3023.30  130.29
  -1   1   1 3011.70  129.69
   0  -1  -1 2215.08  100.69
   0  -1  -1 2165.98  102.29
   0  -1  -1 2224.28   98.89
   0  -1  -1 2194.48   95.29
   0  -1  -1 2125.09  112.39
   0  -1  -1 2315.37  144.39
   0   1   1 2214.98   95.39
   0   1   1 2222.78  101.99
   0   1   1 2219.68   97.49
   0   1   1 2516.75  144.89
   0   1   1 2098.99  100.89
   0   1   1 2407.36  110.39
  -1  -1  -1  102.09   25.80
  -1  -1  -1  102.79   26.10
  -1  -1  -1   90.99   50.29
  -1  -1  -1  148.39   28.10
  -1  -1  -1  153.78   46.10
  -1  -1  -1  116.99   26.80
   1   1   1  129.89   31.40
   1   1   1   99.19   37.10
   1   1   1  118.19   27.40
   1   1   1  145.99   30.80
   1   1   1   98.59   27.10
   1   1   1  184.88   49.99
  -2  -1  -1  901.21   77.09
  -2  -1  -1  973.90   80.79
  -2  -1  -1  903.71  101.09
  -2  -1  -1  862.11   70.39
  -2  -1  -1  931.71   75.79
  -2  -1  -1  904.41   93.69
   2   1   1  914.41  105.19
   2   1   1  992.80   73.49
   2   1   1  817.52   72.59
   2   1   1  880.21   72.69
   2   1   1  923.01  127.09
   2   1   1  901.51   75.99
   2   1   1  800.72   80.29
  -3  -1  -1 1575.94  118.39
  -3  -1  -1 1512.45  161.18
  -3  -1  -1 1467.45  120.29
  -3  -1  -1 1658.03  124.99
  -3  -1  -1 1582.24  124.29
  -3  -1  -1 1606.94  127.79
   3   1   1 1474.35  116.19
   3   1   1 1868.71  219.28
   3   1   1 1597.54  169.58
   3   1   1 1558.64  133.69
   3   1   1 1600.04  126.89
   3   1   1 1637.24  126.89
   3   1   1 1670.43  127.69
  -4  -1  -1  949.40  116.59
  -4  -1  -1  851.81  135.49
  -4  -1  -1 1098.49  131.59
  -4  -1  -1  951.90  135.69
  -4  -1  -1 1109.59  294.47
   4   1   1 1046.40  149.29
   4   1   1 1030.40  218.48
   4   1   1 1521.15  354.66
   4   1   1 1087.99  126.69
   4   1   1 1135.09  172.38
  -5  -1  -1  155.98   84.19
  -5  -1  -1  257.57  115.69
  -5  -1  -1  306.97  177.08
  -5  -1  -1  102.39   97.59
   5   1   1  368.86  202.88
   5   1   1  298.27  232.18
   5   1   1  178.58  106.79
   5   1   1   26.20  170.78
   5   1   1  377.26  118.59
   5  -2  -1 1005.30  191.08
   5  -2  -1  446.86  128.69
   5  -2  -1  733.53  133.89
   5  -2  -1  920.11  242.68
   5  -2  -1  745.43  133.99
   5  -2  -1  739.33  157.38
  -5   2   1 1140.09  186.98
  -5   2   1  649.74  125.09
  -5   2   1  707.03  211.98
  -5   2   1  636.34  118.69
  -5   2   1  546.95  122.39
  -5   2   1  729.53  133.29
   4  -2  -1 1895.61  182.68
   4  -2  -1 1745.43  206.48
   4  -2  -1 1897.31  141.39
   4  -2  -1 1676.83  140.49
   4  -2  -1 1608.14  148.29
   4  -2  -1 1777.22  155.48
  -4   2   1 1821.42  149.79
  -4   2   1 1725.03  146.59
  -4   2   1 1897.71  151.98
  -4   2   1 1679.03  193.18
  -4   2   1 1771.52  148.49
  -4   2   1 1752.82  140.69
   3  -2  -1  383.06   67.99
   3  -2  -1  605.54   72.59
   3  -2  -1  511.15  130.09
   3  -2  -1  454.05   75.29
   3  -2  -1  455.15   63.39
   3  -2  -1  653.83   68.99
   3  -2  -1  351.06   64.69
  -3   2   1  518.45   72.79
  -3   2   1  542.55   65.09
  -3   2   1  644.94   72.79
  -3   2   1  501.15  114.79
  -3   2   1  391.16   66.89
  -3   2   1  495.05   70.49
   2  -2  -1  220.08   36.30
   2  -2  -1  205.48   37.70
   2  -2  -1  175.58   40.50
   2  -2  -1  137.89   37.80
   2  -2  -1  156.18   57.09
  -2   2   1  223.18   37.70
  -2   2   1  188.58   40.60
  -2   2   1  156.88   40.00
  -2   2   1  125.99   49.90
  -2   2   1  153.98   39.20
   1  -2  -1 5921.81  231.08
   1  -2  -1 5733.33  228.78
   1  -2  -1 5951.40  288.97
   1  -2  -1 5609.24  235.88
   1  -2  -1 6087.89  233.28
   1  -2  -1 6044.10  234.48
  -1   2   1 5739.33  230.48
  -1   2   1 5893.01  231.78
  -1   2   1 5911.21  282.57
  -1   2   1 5869.71  230.28
  -1   2   1 6098.09  234.08
   0  -2  -1 5503.05  226.28
   0  -2  -1 5887.71  227.18
   0  -2  -1 5709.53  231.78
   0  -2  -1 5570.14  219.88
   0  -2  -1 5445.56  264.57
   0  -2  -1 5514.95  297.27
   0   2   1 6213.18  224.18
   0   2   1 6238.08  292.87
   0   2   1 5910.61  257.97
   0   2   1 5320.37  226.28
   0   2   1 5774.12  266.17
  -1  -2  -1  641.74   55.99
  -1  -2  -1  649.83   55.99
  -1  -2  -1  631.44   54.79
  -1  -2  -1  597.04   53.09
   1   2   1  649.54   54.79
   1   2   1  598.34   91.69
   1   2   1  639.24   96.19
   1   2   1  676.13   75.69
   1   2   1  617.84   58.19
  -2  -2  -1  471.65   60.49
  -2  -2  -1  470.55   66.09
  -2  -2  -1  138.09  161.58
  -2  -2  -1  561.84   67.39
  -2  -2  -1  407.06   59.59
  -2  -2  -1  479.85  100.49
   2   2   1  444.66  104.99
   2   2   1  411.76   73.59
   2   2   1  453.65   59.29
   2   2   1  458.65   59.29
   2   2   1  455.05   59.19
  -3  -2  -1  783.62   87.19
  -3  -2  -1 1013.20  191.58
  -3  -2  -1  711.03   96.09
  -3  -2  -1  728.53   94.59
  -3  -2  -1  700.73   88.09
  -3  -2  -1  723.93   97.59
   3   2   1  572.84   94.49
   3   2   1 1000.00  254.07
   3   2   1  458.15  138.89
   3   2   1  491.45   91.59
  -4  -2  -1 1187.08  180.78
  -4  -2  -1 1405.76  229.98
  -4  -2  -1 1002.70  133.79
  -4  -2  -1 1175.68  152.38
  -4  -2  -1 1082.39  236.38
   4   2   1 1213.08  234.78
   4   2   1  917.41  162.88
   4   2   1  968.70  144.29
   4   2   1 1380.36  268.97
   5  -3  -1  585.74  168.48
   5  -3  -1  185.88   79.79
   5  -3  -1  357.76  120.99
   5  -3  -1  444.96  130.19
   5  -3  -1  128.39   81.89
   5  -3  -1  218.28  111.69
  -5   3   1  219.88   78.39
  -5   3   1  199.28   95.59
  -5   3   1  223.78   75.19
  -5   3   1  381.46  138.59
  -5   3   1  130.49   96.69
  -5   3   1  343.87  130.59
   4  -3  -1  693.03  116.59
   4  -3  -1  796.42  132.59
   4  -3  -1  608.14  119.59
   4  -3  -1 1666.33  419.36
   4  -3  -1  810.52  104.39
   4  -3  -1  659.93   97.29
  -4   3   1  959.80  264.17
  -4   3   1  663.63  112.99
  -4   3   1  891.31  103.09
  -4   3   1  704.43  123.89
  -4   3   1  781.02  134.79
  -4   3   1  864.71  102.99
   3  -3  -1 3514.65  194.48
   3  -3  -1 3508.25  189.88
   3  -3  -1 3783.02  204.18
   3  -3  -1 3636.04  190.78
   3  -3  -1 3707.83  197.38
   3  -3  -1 3576.64  276.87
  -3   3   1 3393.16  197.48
  -3   3   1 3751.92  198.68
  -3   3   1 3622.74  195.38
  -3   3   1 3356.36  259.67
  -3   3   1 3872.51  203.98
   2  -3  -1  674.13   62.29
   2  -3  -1  672.93   68.29
   2  -3  -1  577.74   62.19
   2  -3  -1  770.02  148.49
   2  -3  -1  660.93   68.29
  -2   3   1  677.13   65.49
  -2   3   1  630.14   62.89
  -2   3   1  612.14   62.99
  -2   3   1  666.03   90.29
  -2   3   1  656.63   69.89
  -1   3   1  109.19   29.00
   0  -3  -1 1496.95  176.88
   0  -3  -1 1599.74   95.69
   0  -3  -1 1407.66  170.38
   0  -3  -1 1510.35  152.18
   0  -3  -1 1608.24   98.49
   0   3   1 1721.33   89.09
   0   3   1 1674.13  132.39
   0   3   1 1766.82  107.89
   0   3   1 1778.72  142.39
   0   3   1 1677.03  139.59
  -1  -3  -1 3934.11  335.67
  -1  -3  -1 4601.64  202.68
   1   3   1 4744.13  270.07
   1   3   1 4558.54  301.17
   1   3   1 4533.35  248.98
   1   3   1 4174.28  192.98
   1   3   1 4700.73  203.88
   1   3   1 4692.73  273.47
  -2  -3  -1 1123.39   91.29
  -2  -3  -1 1028.20   99.89
  -2  -3  -1 1035.40   93.19
   2   3   1 1033.20   92.29
   2   3   1 1394.66  180.28
   2   3   1 1214.88  102.09
   2   3   1 1255.67  130.89
  -3  -3  -1   43.10   54.19
  -3  -3  -1  -24.80   55.99
  -3  -3  -1   37.10   45.20
  -3  -3  -1   63.09   65.59
   3   3   1  -83.29   58.49
   3   3   1  -30.00   51.29
   3   3   1   -2.00   25.80
   3   3   1  -85.69   84.69
  -4  -3  -1  749.42  133.39
  -4  -3  -1  528.85  109.59
  -4  -3  -1  427.06  115.69
  -4  -3  -1  519.95  147.79
  -4  -3  -1  332.07  131.59
   4   3   1  501.65  154.08
   4   3   1  547.25  119.59
   4   3   1  289.17  174.38
   5  -4  -1  209.38   81.89
   5  -4  -1  402.06  132.79
   5  -4  -1  296.17  125.09
   5  -4  -1  264.37  162.38
   5  -4  -1   33.00   79.99
   5  -4  -1   83.49   80.59
  -5   4   1  192.78  116.09
  -5   4   1  210.88  113.89
  -5   4   1  314.57  102.69
  -5   4   1  509.45  187.98
  -5   4   1   40.20  144.89
   4  -4  -1  510.15   96.39
   4  -4  -1  478.75   98.09
   4  -4  -1  560.84   97.19
   4  -4  -1  629.44  173.08
   4  -4  -1  403.86  110.89
  -4   4   1  483.05  107.59
  -4   4   1  588.24  101.49
  -4   4   1  452.25  105.29
  -4   4   1  820.02  128.59
  -4   4   1  458.25  147.39
   3  -4  -1 1066.99  106.09
   3  -4  -1  974.20  111.09
   3  -4  -1 1082.79  101.19
   3  -4  -1  977.90   93.69
   3  -4  -1 1032.50  202.48
  -3   4   1 1038.50  106.69
  -3   4   1 1138.29  102.69
  -3   4   1  969.70  144.19
  -3   4   1 1008.70  136.99
   2  -4  -1 1954.60  117.39
   2  -4  -1 1897.21  118.99
   2  -4  -1 1986.80  121.49
   2  -4  -1 1923.11  120.39
  -2   4   1 1968.90  128.09
  -2   4   1 1768.72  118.29
  -2   4   1 2017.50  121.79
   1  -4  -1  375.26  137.89
   1  -4  -1  434.36   53.49
   1  -4  -1  448.56  258.27
   1  -4  -1  400.36   52.59
   1  -4  -1  536.15  125.29
  -1   4   1  454.85   94.49
  -1   4   1  308.37   60.19
  -1   4   1  378.46   50.09
  -1   4   1  481.05   83.99
   0  -4  -1   46.20   29.40
   0  -4  -1   17.50  140.29
   0  -4  -1 -189.98  136.79
   0  -4  -1  -46.90   30.00
   0   4   1   28.30   37.30
   0   4   1   -9.50   11.00
   0   4   1   17.40   32.40
   0   4   1   56.49   46.00
  -1  -4  -1 1018.20   90.09
   1   4   1  954.20  149.59
   1   4   1  994.30  107.99
   1   4   1 1016.70   84.19
   1   4   1  915.21  127.69
   1   4   1  896.51   78.39
   1   4   1  967.50  147.19
  -2  -4  -1  545.95   99.89
  -2  -4  -1  791.62   92.79
   2   4   1  564.44  128.09
   2   4   1  560.64   89.79
   2   4   1  539.85  151.98
   2   4   1  621.54   97.19
   2   4   1  887.01  156.28
  -3  -4  -1  326.77  102.49
   3   4   1  224.08   82.39
   3   4   1    6.30  119.69
   3   4   1  158.68   79.29
   5  -5  -1  350.46  162.98
   5  -5  -1  272.07  196.88
   5  -5  -1  583.04  172.38
   5  -5  -1  478.15  192.88
   5  -5  -1  405.36  114.99
   5  -5  -1  697.53  132.09
  -5   5   1  563.64  132.69
  -5   5   1  330.67  208.08
  -5   5   1  476.95  166.28
  -5   5   1  535.75  191.68
  -5   5   1  566.04  138.79
  -5   5   1  539.15  143.09
   4  -5  -1   83.29   91.79
   4  -5  -1   87.19  102.49
   4  -5  -1   67.59   55.79
   4  -5  -1   22.20   62.89
   4  -5  -1   62.09   80.49
   4  -5  -1   80.39  101.29
  -4   5   1   22.50   53.19
  -4   5   1    6.70   55.99
  -4   5   1  -98.79   76.59
  -4   5   1   49.20   54.99
  -4   5   1   61.59   97.09
  -4   5   1  257.27   98.29
   3  -5  -1  934.71  122.89
   3  -5  -1  917.61  104.29
   3  -5  -1  949.31  115.69
   3  -5  -1  716.63  186.28
   3  -5  -1  958.50   98.79
  -3   5   1  953.40  106.19
  -3   5   1  600.04  144.39
  -3   5   1  943.81  149.09
  -3   5   1  988.10  111.99
  -3   5   1  704.93  165.38
   2  -5  -1 1474.75  106.69
   2  -5  -1 1455.25  109.69
   2  -5  -1 1526.15  127.89
   2  -5  -1 1392.26  167.98
   2  -5  -1 1451.45  108.09
  -2   5   1 1533.05  121.49
  -2   5   1 1428.76  151.28
  -2   5   1 1279.17  145.89
  -2   5   1 1242.18  142.49
  -2   5   1 1518.15  110.09
   1  -5  -1 1498.55  178.28
   1  -5  -1 1565.34  109.59
   1  -5  -1 1561.14  109.09
  -1   5   1 1507.85  145.89
  -1   5   1 1710.43  103.29
   0  -5  -1   43.60   47.60
   0  -5  -1  105.79   40.30
   0   5   1   46.00   36.90
   0   5   1  100.09   64.89
  -1  -5  -1  177.28   63.29
  -1  -5  -1  163.58   59.09
   1   5   1  219.28  104.09
   1   5   1  205.78   73.79
   1   5   1   77.49   73.49
   1   5   1  101.19   67.89
  -2  -5  -1  719.23  127.69
   2   5   1  900.81  120.19
   2   5   1 1044.70  207.88
   2   5   1  339.97  119.49
   2   5   1  650.63  149.19
  -3  -5  -1  113.19  124.89
  -3  -5  -1  329.17  107.19
   3   5   1  237.98  153.78
   3   5   1  447.56  134.49
   3   5   1  112.09  102.39
   4  -6  -1  712.63  129.39
   4  -6  -1  312.57  138.79
   4  -6  -1  236.18  138.29
   4  -6  -1  607.74  213.58
   4  -6  -1  522.55  115.09
  -4   6   1  570.74  117.19
  -4   6   1  601.24  126.29
  -4   6   1  418.66  147.09
  -4   6   1  483.25  123.49
   3  -6  -1   90.99   53.09
   3  -6  -1  -71.09   92.59
   3  -6  -1  147.89   78.09
   3  -6  -1    6.10   36.30
   3  -6  -1   -8.30   75.69
   3  -6  -1    0.40   53.59
  -3   6   1  134.19   64.39
  -3   6   1   39.00   46.50
   2  -6  -1  667.83   89.19
  -2   6   1  654.03  140.69
  -2   6   1  421.96  164.08
  -2   6   1  674.73  108.79
  -2   6   1  599.14   88.19
   1  -6  -1  543.05   82.59
   1  -6  -1  591.34  103.69
  -1   6   1  520.45  117.89
  -1   6   1  384.16  107.59
  -1   6   1  664.43   75.49
  -1   6   1  381.86  100.19
   0  -6  -1  958.00  100.29
   0  -6  -1  983.90  125.49
   0   6   1 1034.60  125.69
   0   6   1  989.10  127.79
   0   6   1  901.81  159.08
  -1  -6  -1  -11.20   58.09
   1   6   1  -24.50   79.39
   1   6   1   48.10   76.89
   1   6   1   -6.60   33.90
  -2  -6  -1  330.17   96.99
  -2  -6  -1  281.97  109.79
   2   6   1   74.49   70.59
   2   6   1  318.97   99.69
   2   6   1  258.17  135.99
   4  -7  -1  469.75  121.99
   4  -7  -1  695.83  247.58
   4  -7  -1  528.95  117.19
   4  -7  -1  492.25  168.28
   4  -7  -1  348.67  168.58
   4  -7  -1  253.97  169.38
  -4   7   1  570.44  139.29
  -4   7   1  477.65  153.98
  -4   7   1  389.26  119.09
   3  -7  -1  191.08   74.59
   3  -7  -1  238.78  106.59
  -3   7   1  192.08   84.79
  -3   7   1  -55.59  123.19
  -3   7   1  144.89   99.89
  -3   7   1   43.20   46.00
  -3   7   1  154.78   89.49
   2  -7  -1  -43.80   89.69
   2  -7  -1   18.00   50.09
  -2   7   1   27.90   38.40
   1  -7  -1  502.05   92.99
   1  -7  -1  422.86  117.09
  -1   7   1  455.55  153.18
  -1   7   1  291.17   93.09
   0   7   1  428.26   98.69
   0   7   1  516.75  141.89
   0   7   1  816.92  154.08
   1   7   1   58.89  119.19
   1   7   1  276.57   86.79
   1   7   1  236.78  120.49
   2  -8  -1  108.49  133.89
   2  -8  -1   51.89   97.29
   2  -8  -1  263.17   86.09
  -2   8   1  177.28   94.19
  -2   8   1   98.09   66.49
  -1   8   1  102.39   64.79
  -1   8  -2    9.00  107.19
  -2   8  -2  446.26  138.39
   1   7  -2  714.33  177.68
  -1   7  -2   86.89   80.89
  -1   7  -2  232.98   99.39
  -1   7  -2   54.39   81.09
  -2   7  -2   92.39   73.49
  -2   7  -2   59.19   41.20
   2  -7   2   47.70   49.80
  -3   7  -2  220.18  128.29
  -3   7  -2  444.56  114.39
   3  -7   2  518.35  103.59
   2   6  -2  -30.10  117.89
   1   6  -2  517.65  138.49
  -1   6  -2  294.27   86.89
  -1   6  -2  408.46  108.49
  -1   6  -2  360.56   89.49
   1  -6   2  234.38   94.69
  -2   6  -2   31.40   28.10
  -2   6  -2   21.70   50.59
   2  -6   2  -27.90   15.20
  -3   6  -2  300.97   99.79
  -3   6  -2  250.47   91.19
  -3   6  -2  401.86   97.99
   3  -6   2  386.06   83.89
   3  -6   2  364.06   99.99
   3  -6   2  203.08   92.09
  -4   6  -2  728.83  212.78
   4  -6   2  772.52  130.49
   4  -6   2  638.64  119.89
   4  -6   2  511.55  304.17
   3   5  -2  815.32  203.58
   2   5  -2  540.75  147.39
   1   5  -2 -101.39   71.19
   0   5  -2  335.37   82.39
   0  -5   2  461.25   87.19
  -1   5  -2 1447.36  132.39
  -1   5  -2 1429.66  135.09
   1  -5   2  886.01  252.87
   1  -5   2 1097.99  125.89
  -2   5  -2  393.66  118.29
  -2   5  -2  577.64  121.09
  -2   5  -2  497.85   74.19
  -2   5  -2  637.04   92.89
   2  -5   2  395.46   67.49
   2  -5   2  210.28  215.68
   2  -5   2  559.24   76.19
  -3   5  -2  248.28   81.09
  -3   5  -2  169.18   63.39
  -3   5  -2  226.08   59.99
   3  -5   2  255.77   74.79
  -4   5  -2  759.02  127.29
  -4   5  -2  601.04  168.38
  -4   5  -2  525.65  123.49
  -4   5  -2  623.44  126.39
   4  -5   2  674.63  124.29
   4  -5   2  613.64  111.89
   4  -5   2  441.36  143.69
   4  -5   2  460.15  147.99
   4   4  -2  293.67  180.48
   4   4  -2  254.47  107.79
  -4  -4   2  325.77  110.89
  -4  -4   2  366.06  111.99
   3   4  -2  337.17  133.49
   3   4  -2 1271.67  244.98
   2   4  -2  670.13  141.19
   1   4  -2  339.77   99.49
  -1  -4   2  295.57   78.99
  -1  -4   2  514.05  231.78
   0   4  -2  285.87   68.39
   0   4  -2  223.28   68.19
   0  -4   2  115.89  126.99
   0  -4   2  239.58   62.89
  -1   4  -2 1412.06  110.99
  -1   4  -2 1416.66  115.59
  -1   4  -2 1270.17  142.89
   1  -4   2 1097.79  107.59
   1  -4   2 1545.75  222.58
   1  -4   2 1334.17  125.29
  -2   4  -2 1662.73  107.09
  -2   4  -2 1844.92  177.18
  -2   4  -2 1728.43  150.08
  -2   4  -2 1741.13  136.99
  -2   4  -2 1708.93  108.69
   2  -4   2 1644.24  108.39
   2  -4   2 1678.83  111.49
   2  -4   2 1760.52  157.78
  -3   4  -2  200.68   61.69
  -3   4  -2  122.39   63.09
  -3   4  -2  221.88   92.99
  -3   4  -2  106.59   76.19
  -3   4  -2  145.99   55.39
   3  -4   2  178.68   79.99
   3  -4   2  163.58   63.59
   3  -4   2  173.58   55.09
   3  -4   2  205.48   54.49
   3  -4   2  197.68   60.29
   3  -4   2  354.96   86.19
  -4   4  -2  -16.10   83.59
  -4   4  -2   54.19   67.89
  -4   4  -2  109.29   60.29
  -4   4  -2  -23.40   78.29
  -4   4  -2   18.30   57.69
   4  -4   2  -12.80   21.10
   4  -4   2  -35.90   64.19
   4  -4   2  -77.59   50.19
   4  -4   2   83.89   74.99
   4  -4   2  248.18  118.99
  -5   4  -2  307.47  137.59
  -5   4  -2  456.45  167.28
  -5   4  -2    3.60  165.68
  -5   4  -2  406.56  123.69
  -5   4  -2  231.48  157.68
   5  -4   2  398.66  179.78
   5  -4   2  598.34  123.89
   5  -4   2  244.28  125.89
   5  -4   2  607.94  223.68
   5  -4   2  619.14  122.89
   4   3  -2   63.39   65.89
   4   3  -2  171.58  149.88
  -4  -3   2   34.20   68.29
  -4  -3   2  120.09   84.69
  -4  -3   2  132.59   71.29
  -4  -3   2   51.79   55.19
   3   3  -2  650.93  130.39
   3   3  -2  374.86  126.59
  -3  -3   2  724.03   85.09
  -3  -3   2  509.15  110.69
  -3  -3   2  682.23   91.59
   2   3  -2 1446.66  179.28
   2   3  -2 1346.37  109.99
  -2  -3   2 1272.67  100.39
  -2  -3   2 1411.46  108.79
  -1  -3   2 2908.21  175.08
   0   3  -2   57.29   30.60
   0   3  -2    2.70   33.70
   0   3  -2  -19.10   30.10
   0  -3   2   12.00   61.99
   0  -3   2   94.79   53.59
   0  -3   2   66.79   35.10
  -1   3  -2 2079.99  126.79
  -1   3  -2 2214.58  164.98
  -1   3  -2 2091.19  127.79
   1  -3   2 1987.00  161.58
   1  -3   2 1606.64  163.48
   1  -3   2 1910.51   97.79
   1  -3   2 1784.02  120.49
   1  -3   2 1735.23   93.89
   1  -3   2 1974.10  130.59
  -2   3  -2 1644.94  145.29
  -2   3  -2 1813.02  110.99
  -2   3  -2 1853.51  162.48
  -2   3  -2 1775.42  108.49
  -2   3  -2 1826.72  130.59
   2  -3   2 1791.22  105.39
   2  -3   2 1318.97  191.18
   2  -3   2 1983.50  114.09
   2  -3   2 1682.63  153.38
   2  -3   2 1773.62  111.39
  -3   3  -2 2077.29  192.48
  -3   3  -2 2076.49  141.99
  -3   3  -2 1734.63  143.49
  -3   3  -2 2105.59  151.58
   3  -3   2 1653.33  141.59
   3  -3   2 2109.39  134.89
   3  -3   2 1988.20  140.49
   3  -3   2 2166.28  204.58
   3  -3   2 1984.80  145.29
   3  -3   2 2143.09  155.48
  -4   3  -2   26.60   78.19
  -4   3  -2  335.07   85.89
  -4   3  -2   16.10   87.79
  -4   3  -2  217.58   67.99
  -4   3  -2  243.18  112.89
  -4   3  -2  194.58   73.29
   4  -3   2  213.68   65.89
   4  -3   2  327.57  110.99
   4  -3   2  100.79   57.29
   4  -3   2  137.89   85.39
   4  -3   2  171.28   74.79
   4  -3   2  287.67  121.59
  -5   3  -2  115.29  118.49
  -5   3  -2   40.80  143.39
  -5   3  -2  185.58  149.88
  -5   3  -2   64.59   90.99
  -5   3  -2   59.79   74.19
  -5   3  -2   18.90  109.39
   5  -3   2 -127.89   91.09
   5  -3   2  315.37  150.08
   5  -3   2   58.79  156.18
   5  -3   2 -175.78  186.68
   5  -3   2  188.48   96.09
   4   2  -2   98.59  120.29
   4   2  -2  241.48  148.99
   4   2  -2   80.89  104.49
   4   2  -2  204.08   76.39
   4   2  -2   93.89  119.09
  -4  -2   2  256.87   79.99
  -4  -2   2  238.48   72.59
  -4  -2   2  448.66  115.79
   3   2  -2  120.69   45.70
   3   2  -2   22.50   42.90
   3   2  -2   88.99   62.59
   3   2  -2  113.69   99.99
  -3  -2   2  210.58   50.69
  -3  -2   2  130.29   49.99
  -3  -2   2   69.99   43.50
   2   2  -2 1312.47  161.08
   2   2  -2 1450.05  120.59
  -2  -2   2 1441.26  101.59
  -2  -2   2 1618.34  124.39
  -2  -2   2 1384.66   85.19
   1   2  -2 1579.14  140.49
  -1  -2   2 1769.72   96.89
  -1  -2   2 1648.24  119.49
  -1  -2   2 1396.66  166.28
   0   2  -2 2480.15  133.69
   0   2  -2 2273.27  142.39
   0  -2   2 2257.57  129.69
   0  -2   2 2154.08  153.58
  -1   2  -2  658.13   50.59
  -1   2  -2  768.82   72.49
  -1   2  -2  708.63   51.69
  -1   2  -2  687.13   65.79
  -1   2  -2  771.52   84.19
   1  -2   2  711.83   63.79
   1  -2   2  679.03   71.49
   1  -2   2  727.23   53.79
   1  -2   2  704.13   52.39
  -2   2  -2  641.84   65.49
  -2   2  -2  725.93   73.39
  -2   2  -2  832.82   97.19
  -2   2  -2  715.43   65.89
  -2   2  -2  727.93   65.19
  -2   2  -2  763.72   72.89
   2  -2   2  731.93   78.39
   2  -2   2  689.13   67.29
   2  -2   2  669.63   70.49
   2  -2   2  618.64  115.99
   2  -2   2  676.93   61.59
  -3   2  -2 1689.13  121.99
  -3   2  -2 1586.04  161.58
  -3   2  -2 1437.06  126.39
  -3   2  -2 1640.04  122.19
  -3   2  -2 1642.04  130.79
  -3   2  -2 1679.53  169.58
   3  -2   2 1712.83  178.88
   3  -2   2 1625.64  127.39
   3  -2   2 1652.93  123.99
   3  -2   2 1281.67  124.59
   3  -2   2 1722.33  116.99
   3  -2   2 1495.75  139.99
  -4   2  -2 1387.26  134.29
  -4   2  -2 1257.27  150.08
  -4   2  -2 1283.97  131.39
  -4   2  -2 1447.26  151.08
  -4   2  -2 1082.29  150.98
  -4   2  -2 1195.98  167.48
   4  -2   2 1220.98  184.18
   4  -2   2 1634.74  160.18
   4  -2   2 1063.69  211.38
   4  -2   2 1345.87  137.89
   4  -2   2 1180.48  127.09
  -5   2  -2  134.69  119.49
  -5   2  -2   15.00   73.09
  -5   2  -2    7.20   45.90
  -5   2  -2  121.89   78.39
   5  -2   2   58.99   81.69
   5  -2   2   79.59  173.18
   5  -2   2  -28.70   87.49
   5  -2   2  252.27  203.78
   5  -2   2  128.89   90.39
   5  -2   2   99.09  150.88
   5   1  -2  485.45  124.69
   5   1  -2  664.43  235.28
   5   1  -2  498.85  157.98
   5   1  -2  368.86  176.78
  -5  -1   2  755.82  163.48
  -5  -1   2  596.14  128.99
  -5  -1   2  635.34  127.89
  -5  -1   2  251.67  129.99
  -5  -1   2  870.51  155.68
  -5  -1   2  561.94  172.08
   4   1  -2  832.02  150.58
   4   1  -2 1355.76  131.39
   4   1  -2  958.90  134.99
   4   1  -2 1239.78  238.68
  -4  -1   2 1183.98  126.49
  -4  -1   2 1277.57  128.49
  -4  -1   2  996.80  113.69
  -4  -1   2 1190.68  125.09
  -4  -1   2 1197.08  135.99
  -4  -1   2 1287.77  220.18
   3   1  -2  196.18   49.10
   3   1  -2  251.47   76.39
   3   1  -2  175.48   88.69
   3   1  -2  105.89   49.20
  -3  -1   2  340.37   62.09
  -3  -1   2  208.28   44.30
  -3  -1   2  219.28   74.19
  -3  -1   2  133.99   43.10
   2   1  -2  320.27   87.89
   2   1  -2  315.67   39.80
   2   1  -2  367.96   53.39
   2   1  -2  349.96   45.70
   2   1  -2  401.06   82.19
  -2  -1   2  326.27   43.80
  -2  -1   2  454.95   52.39
  -2  -1   2  339.77   43.90
  -2  -1   2  386.26   79.89
   1   1  -2 2948.21  153.48
   1   1  -2 2755.52  113.59
   1   1  -2 2586.24  164.38
  -1  -1   2 2751.82  116.29
  -1  -1   2 2797.42  116.49
  -1  -1   2 2751.72  130.89
  -1  -1   2 2840.62  148.89
   0   1  -2 2306.87   99.19
   0   1  -2 2176.88   95.59
   0   1  -2 2358.86  121.99
   0  -1   2 2165.88   98.89
   0  -1   2 2357.06  126.49
   0  -1   2 2169.38   98.69
   0  -1   2 2125.59  137.39
   0  -1   2 2202.08  103.29
   0  -1   2 2299.67  136.59
   0  -1   2 2433.26  123.49
  -1   1  -2 2066.09  110.39
  -1   1  -2 2004.80  101.39
  -1   1  -2 2041.60  133.69
  -1   1  -2 1947.71  103.59
  -1   1  -2 1934.51   97.39
  -1   1  -2 2004.40  101.09
   1  -1   2 1957.10  101.19
   1  -1   2 2100.09  103.39
   1  -1   2 1899.31  132.39
   1  -1   2 2026.80  106.49
   1  -1   2 2089.99  107.99
   1  -1   2 1986.50   98.79
  -2   1  -2  159.18   41.20
  -2   1  -2   98.49   35.70
  -2   1  -2  129.69   45.50
  -2   1  -2  152.78   37.30
  -2   1  -2   63.29   44.20
  -2   1  -2  120.49   34.80
   2  -1   2  124.99   43.10
   2  -1   2  148.79   59.99
   2  -1   2  114.99   39.70
   2  -1   2  141.79   40.20
   2  -1   2  156.78   38.40
  -3   1  -2  444.96   82.99
  -3   1  -2  453.95   72.39
  -3   1  -2  575.34   72.99
  -3   1  -2  497.55   80.39
  -3   1  -2  443.46   73.79
  -3   1  -2  346.47  100.89
   3  -1   2  498.85   92.09
   3  -1   2  532.75  129.59
   3  -1   2  515.95   79.29
   3  -1   2  496.75   78.09
   3  -1   2  547.85   79.79
  -4   1  -2  430.76  108.19
  -4   1  -2  692.43  102.29
  -4   1  -2  738.73  122.79
  -4   1  -2  807.32  191.48
  -4   1  -2  813.72   99.99
   4  -1   2  465.95  108.99
   4  -1   2  670.23  137.99
   4  -1   2  604.84  178.88
   4  -1   2  721.13  111.19
   4  -1   2  626.44  161.28
   4  -1   2  788.72  113.59
  -5   1  -2  160.58  121.39
  -5   1  -2  378.46  170.78
  -5   1  -2  309.57  129.89
  -5   1  -2  564.54  181.48
  -5   1  -2  334.67   96.39
  -5   1  -2  465.95  112.79
   5  -1   2  305.27  106.19
   5  -1   2  244.68  130.59
   5  -1   2  143.79  215.78
   5  -1   2  254.87  109.39
   5  -1   2    6.80  159.88
   5  -1   2  317.77  161.98
   5   0  -2  306.57  151.68
   5   0  -2  265.97  184.98
   5   0  -2  409.76  106.79
   5   0  -2  185.68  110.39
   5   0  -2  321.37  145.29
   5   0  -2  662.13  265.17
   5   0  -2  179.58   96.59
  -5   0   2    3.90  121.39
  -5   0   2  277.77   89.29
  -5   0   2  286.47  100.09
  -5   0   2  146.19  138.49
  -5   0   2  176.38   92.29
  -5   0   2  505.05  119.29
   4   0  -2 1328.87  142.49
   4   0  -2 1563.94  141.39
   4   0  -2 1609.54  193.38
   4   0  -2 1475.65  244.18
   4   0  -2 1363.56  129.39
  -4   0   2 1490.35  140.39
  -4   0   2 1818.12  156.28
  -4   0   2 1640.14  141.19
  -4   0   2 1552.14  144.79
  -4   0   2 1365.26  172.98
  -4   0   2 1459.45  131.89
   3   0  -2 2531.15  144.49
   3   0  -2 2138.59  137.59
   3   0  -2 2170.18  148.69
   3   0  -2 2503.35  208.28
  -3   0   2 2110.59  132.69
  -3   0   2 2130.39  134.39
  -3   0   2 2370.16  143.19
  -3   0   2 2145.19  189.68
  -3   0   2 2249.27  137.39
  -3   0   2 2443.76  149.39
   2   0  -2 1121.79   76.79
   2   0  -2 1197.78   80.99
   2   0  -2 1289.07  121.69
   2   0  -2 1124.59   76.69
   2   0  -2 1151.58   85.19
   2   0  -2 1327.37   80.39
  -2   0   2 1135.19   77.99
  -2   0   2 1182.38   80.39
  -2   0   2 1221.68  114.99
  -2   0   2 1207.18   85.99
  -2   0   2 1309.67   81.79
  -2   0   2 1232.28   79.49
   1   0  -2   39.50   17.30
   1   0  -2   33.40   16.20
   1   0  -2   45.10   16.00
   1   0  -2   30.50   14.90
  -1   0   2   59.09   17.90
  -1   0   2   29.60   15.70
  -1   0   2   15.30   13.40
  -1   0   2   28.90   14.70
  -1   0   2   14.30   19.60
  -1   0   2   33.60   17.10
  -1   0   2   30.90   18.30
   0   0  -2 9626.44  353.76
   0   0  -2 9604.64  351.86
   0   0  -2 9405.56  347.77
   0   0  -2 9999.00  433.16
   0   0  -2 9098.69  344.97
   0   0  -2 9993.90  354.26
   0   0   2 9633.24  424.26
   0   0   2 9277.97  347.27
   0   0   2 9510.35  357.56
   0   0   2 9096.89  351.26
   0   0   2 9625.24  350.36
   0   0   2 9327.07  352.66
  -1   0  -2 1791.12   95.79
  -1   0  -2 1968.60   98.69
  -1   0  -2 1774.22   99.39
  -1   0  -2 1819.72   99.89
  -1   0  -2 1753.62  133.29
   1   0   2 1896.91  105.29
   1   0   2 1861.51   98.89
   1   0   2 1760.72   93.89
   1   0   2 1787.62   97.49
   1   0   2 1697.43  142.09
  -2   0  -2 1181.18  120.89
  -2   0  -2 1178.78   87.69
  -2   0  -2  995.30   84.89
  -2   0  -2 1061.69   82.19
  -2   0  -2 1183.08   93.69
   2   0   2  916.51  148.89
   2   0   2 1199.18  125.89
   2   0   2  996.20   85.89
   2   0   2 1120.69   86.89
   2   0   2 1012.30  131.69
   2   0   2 1092.29   85.29
   2   0   2 1158.18   82.19
  -3   0  -2  101.59   53.79
  -3   0  -2  177.18   50.59
  -3   0  -2  143.29   51.09
  -3   0  -2  110.59   68.89
  -3   0  -2  153.18   54.09
   3   0   2  114.09   49.99
   3   0   2  116.89   93.49
   3   0   2  140.59   48.80
   3   0   2  209.88   68.89
   3   0   2  147.39   65.59
   3   0   2  190.48   55.89
   3   0   2   68.89   42.00
  -4   0  -2 1129.09  218.28
  -4   0  -2 1031.30  118.39
  -4   0  -2 1044.10  150.98
  -4   0  -2  859.21  136.19
  -4   0  -2  918.11  137.69
   4   0   2  821.32  191.08
   4   0   2 1117.49  166.38
   4   0   2 1099.39  131.69
   4   0   2 1126.79  154.28
   4   0   2 1006.20  122.39
   4   0   2  841.52  195.48
   4   0   2  714.03  126.69
  -5   0  -2  674.03  197.48
  -5   0  -2  543.85  164.88
  -5   0  -2  587.44  185.78
  -5   0  -2  658.03  136.49
  -5   0  -2 1002.60  185.58
   5   0   2  576.44  230.68
   5   0   2  457.65  185.78
   5   0   2  686.23  236.68
   5   0   2  796.12  144.39
   5   0   2  679.63  206.58
   5   0   2  713.93  168.08
   5   0   2  399.06  188.68
   5  -1  -2  -13.50  145.29
   5  -1  -2  122.89   84.49
   5  -1  -2  116.39   82.29
   5  -1  -2   40.90   55.29
   5  -1  -2  277.47  135.29
  -5   1   2   29.00   52.19
  -5   1   2   12.80   54.49
  -5   1   2   77.89  107.99
  -5   1   2   18.60  103.69
  -5   1   2   77.59   73.59
   4  -1  -2  259.17   81.99
   4  -1  -2  300.07  127.69
   4  -1  -2  173.08   61.59
   4  -1  -2  178.48   58.19
   4  -1  -2  258.77   81.49
  -4   1   2  220.68   72.09
  -4   1   2  149.49   60.29
  -4   1   2  235.98  103.39
  -4   1   2  183.28   64.69
  -4   1   2  190.48   64.29
  -4   1   2  163.38   67.59
   3  -1  -2 2254.47  155.48
   3  -1  -2 2348.67  140.89
   3  -1  -2 2197.88  134.69
   3  -1  -2 2201.38  243.38
   3  -1  -2 2207.68  145.09
   3  -1  -2 2152.18  135.09
  -3   1   2 2354.36  142.29
  -3   1   2 1997.00  132.89
  -3   1   2 1832.82  181.58
  -3   1   2 2165.28  135.79
  -3   1   2 2149.58  140.09
  -3   1   2 2206.18  137.19
   2  -1  -2 2407.16  128.09
   2  -1  -2 2561.04  194.78
   2  -1  -2 2444.96  178.58
   2  -1  -2 2573.94  132.49
   2  -1  -2 2406.26  126.99
   2  -1  -2 2394.16  133.19
   2  -1  -2 2331.07  125.49
  -2   1   2 2522.65  180.08
  -2   1   2 2468.15  128.99
  -2   1   2 2401.36  126.09
  -2   1   2 2435.86  128.59
  -2   1   2 2373.76  128.09
  -2   1   2 2431.06  129.09
   1  -1  -2  397.96   41.00
   1  -1  -2  399.56   41.60
   1  -1  -2  344.57   37.80
   1  -1  -2  487.15   67.39
   1  -1  -2  409.06   39.10
   1  -1  -2  407.06   38.70
  -1   1   2  376.26   39.40
  -1   1   2  432.06   39.50
  -1   1   2  397.96   79.29
  -1   1   2  363.66   39.10
  -1   1   2  336.27   36.20
  -1   1   2  432.56   39.80
   0  -1  -2   89.59   44.20
   0  -1  -2    4.30   14.10
   0  -1  -2    9.60   15.30
   0  -1  -2   27.50   19.70
   0   1   2   53.69   29.10
   0   1   2   40.10   17.40
  -1  -1  -2 1774.92  100.89
  -1  -1  -2 1708.73   98.99
  -1  -1  -2 1795.32  103.29
  -1  -1  -2 1767.32  102.09
   1   1   2 1722.83  123.69
   1   1   2 1702.03  102.49
   1   1   2 1726.53  108.49
   1   1   2 1839.52   99.79
   1   1   2 1972.50  105.49
   1   1   2 1757.82  139.29
  -2  -1  -2 1686.83  111.39
  -2  -1  -2 1689.93  156.98
  -2  -1  -2 1776.62  168.68
  -2  -1  -2 1742.03  110.49
  -2  -1  -2 1825.42  121.29
   2   1   2 1655.93  112.69
   2   1   2 1768.72  161.18
   2   1   2 1672.03  115.39
   2   1   2 1728.93  110.19
   2   1   2 1650.13  108.89
   2   1   2 1520.85  119.19
   2   1   2 1775.82  166.78
  -3  -1  -2  598.44   83.79
  -3  -1  -2  608.44   94.09
  -3  -1  -2  640.14  105.39
  -3  -1  -2  535.55   89.49
  -3  -1  -2  754.62  171.88
   3   1   2  593.64   87.99
   3   1   2  527.85  144.99
   3   1   2  571.14  137.79
   3   1   2  671.03   92.69
   3   1   2  455.85   85.09
  -4  -1  -2  180.28   78.79
  -4  -1  -2  203.68  116.69
  -4  -1  -2   17.60   97.79
  -4  -1  -2  219.78   95.89
   4   1   2  173.28  109.09
   4   1   2  295.07   88.09
   4   1   2  209.88  123.49
   4   1   2  219.18  102.59
   4   1   2  227.98  135.19
   5  -2  -2  254.17  149.09
   5  -2  -2  398.36  139.29
   5  -2  -2  553.54  182.88
   5  -2  -2  566.04  115.09
   5  -2  -2  537.05  112.69
   5  -2  -2  686.73  146.39
  -5   2   2  532.05  116.09
  -5   2   2  652.93  150.98
  -5   2   2  535.95  173.38
  -5   2   2  478.15  130.09
  -5   2   2  442.76  106.29
   4  -2  -2  163.28   54.89
   4  -2  -2  142.59   68.29
   4  -2  -2  251.57   76.69
   4  -2  -2  205.98   63.59
   4  -2  -2   31.50   47.90
   4  -2  -2  350.86   88.29
  -4   2   2  241.78   62.09
  -4   2   2  154.38   51.29
  -4   2   2  151.18   57.39
  -4   2   2  254.87   71.59
  -4   2   2  225.78   74.69
  -4   2   2  197.48   93.29
   3  -2  -2  780.52   89.99
   3  -2  -2  918.41   86.59
   3  -2  -2  814.32   84.59
   3  -2  -2 1006.10  188.98
   3  -2  -2  980.70   87.99
   3  -2  -2  784.22   90.19
   3  -2  -2  893.01   87.59
  -3   2   2  793.42   83.29
  -3   2   2  772.82   91.19
  -3   2   2  881.71  165.58
  -3   2   2  765.72   86.59
  -3   2   2  870.61   83.59
   2  -2  -2 1869.71  110.29
   2  -2  -2 2009.20  113.09
   2  -2  -2 1964.20  169.88
   2  -2  -2 1945.31  110.99
   2  -2  -2 1865.31  110.29
   2  -2  -2 1971.90  113.09
  -2   2   2 1648.44  107.29
  -2   2   2 1985.60  164.08
  -2   2   2 1782.42  110.49
  -2   2   2 1886.21  111.19
  -2   2   2 1940.21  112.69
   1  -2  -2  738.13   93.89
   1  -2  -2  770.62   59.99
   1  -2  -2  830.72   59.79
   1  -2  -2  820.72   63.59
   1  -2  -2  775.32   61.49
   1  -2  -2  771.72   59.79
  -1   2   2  924.91   98.79
  -1   2   2  695.13   61.29
  -1   2   2  790.42   59.09
  -1   2   2  823.42   63.39
  -1   2   2  783.42   62.09
  -1   2   2  789.62   59.29
   0  -2  -2   40.00   22.60
   0  -2  -2    3.10   22.90
   0  -2  -2   37.70   45.60
   0  -2  -2   28.70   20.60
   0  -2  -2   25.70   20.50
   0   2   2   28.40   22.80
   0   2   2  -11.60   18.80
   0   2   2   17.00   26.00
   0   2   2  -22.70   34.30
   0   2   2   17.40   36.50
   0   2   2   -2.20   27.60
  -1  -2  -2 1365.96   94.39
  -1  -2  -2 1255.17   90.59
  -1  -2  -2 1137.79   88.69
  -1  -2  -2 1211.08   86.89
   1   2   2 1444.46  161.98
   1   2   2 1223.58  119.89
   1   2   2 1303.37   94.49
   1   2   2 1278.97   90.79
   1   2   2 1273.47   97.09
   1   2   2 1151.38  119.29
   1   2   2 1246.08   90.39
  -2  -2  -2 2341.47  141.09
  -2  -2  -2 2538.25  146.89
  -2  -2  -2 2464.25  146.59
  -2  -2  -2 2534.85  152.88
  -2  -2  -2 2000.60  358.66
  -2  -2  -2 2094.19  189.08
   2   2   2 2431.66  146.19
   2   2   2 2046.20  141.59
   2   2   2 2400.76  198.08
   2   2   2 2359.66  141.69
   2   2   2 2206.88  152.88
   2   2   2 2675.13  212.98
  -3  -2  -2  452.35   82.99
  -3  -2  -2  633.94  166.78
  -3  -2  -2  446.76   87.29
  -3  -2  -2  397.46   86.69
  -3  -2  -2  453.05   85.69
   3   2   2  510.75  137.49
   3   2   2  340.17   91.89
   3   2   2  491.75   89.39
   3   2   2  252.47  112.49
   3   2   2  505.35   93.79
  -4  -2  -2  -72.59  103.29
  -4  -2  -2  128.39   91.89
  -4  -2  -2  244.38   94.39
  -4  -2  -2  319.67  123.89
  -4  -2  -2  242.48   80.79
   4   2   2  134.59   82.89
   4   2   2 -114.79  131.49
   4   2   2   -9.60  134.29
   4   2   2  220.38   93.89
   4   2   2  117.49   84.39
   4   2   2  146.39  113.69
   5  -3  -2  780.52  218.48
   5  -3  -2 1052.19  195.38
   5  -3  -2 1046.30  149.88
   5  -3  -2 1191.28  152.18
   5  -3  -2  760.62  160.98
   5  -3  -2  767.82  151.78
  -5   3   2 1338.37  219.38
  -5   3   2  724.83  161.18
  -5   3   2  918.41  136.79
  -5   3   2  589.44  162.18
  -5   3   2  952.30  135.39
  -5   3   2 1169.08  167.88
   4  -3  -2  525.75  166.48
   4  -3  -2  350.66   88.69
   4  -3  -2  292.07  141.39
   4  -3  -2  556.64   90.29
   4  -3  -2  256.67   79.99
   4  -3  -2  500.55   94.49
  -4   3   2  370.46   90.59
  -4   3   2  349.87   76.59
  -4   3   2  340.07  125.99
  -4   3   2  415.76   89.89
   3  -3  -2    9.60   31.70
   3  -3  -2   88.89   45.40
   3  -3  -2   26.80   37.50
   3  -3  -2  -20.90   28.60
   3  -3  -2    5.20   42.80
   3  -3  -2   54.09   51.99
  -3   3   2   38.90   45.10
  -3   3   2  -40.90   42.20
  -3   3   2   30.00   38.90
  -3   3   2  -19.70   30.10
  -3   3   2  -15.80   40.50
   2  -3  -2  677.93   78.49
   2  -3  -2  844.62   70.79
   2  -3  -2  795.92   71.99
   2  -3  -2  622.94   75.69
   2  -3  -2  746.13   70.09
   2  -3  -2  652.53  133.79
  -2   3   2  810.42   72.19
  -2   3   2  898.21   72.59
  -2   3   2  617.04  124.89
  -2   3   2  715.83   72.99
  -2   3   2  652.23   71.99
   1  -3  -2 2987.90  225.68
   1  -3  -2 2995.20  149.19
   1  -3  -2 3362.46  162.68
   1  -3  -2 2981.50  145.99
   1  -3  -2 3227.28  156.88
   1  -3  -2 3032.80  148.99
  -1   3   2 2968.80  210.88
  -1   3   2 2719.33  154.78
  -1   3   2 3130.09  149.49
  -1   3   2 3213.58  151.48
  -1   3   2 2953.30  152.18
   0  -3  -2  586.34   62.69
   0  -3  -2  646.14  153.78
   0  -3  -2  539.65  112.99
   0  -3  -2  710.53   92.59
   0  -3  -2  659.33   71.39
   0   3   2  654.13   62.49
   0   3   2  829.42  113.29
   0   3   2  583.14   74.49
   0   3   2  487.75   66.89
  -1  -3  -2   11.20   33.70
  -1  -3  -2  112.89   40.50
  -1  -3  -2   46.30   37.00
  -1  -3  -2   61.09   38.60
  -1  -3  -2  -41.20  134.19
   1   3   2   71.59   45.40
   1   3   2   52.59   69.09
   1   3   2   99.79   40.60
   1   3   2   77.49   37.60
   1   3   2  111.19   38.70
  -2  -3  -2  735.93   95.99
  -2  -3  -2  605.14   83.39
  -2  -3  -2  676.33   97.79
  -2  -3  -2  821.32   90.49
   2   3   2  678.13   95.99
   2   3   2  690.43  138.99
   2   3   2  991.70  173.68
  -3  -3  -2 1805.32  155.38
  -3  -3  -2 1565.54  146.29
  -3  -3  -2 1681.53  141.49
  -3  -3  -2 1461.25  177.58
   3   3   2 1808.52  183.98
   3   3   2 1666.43  173.28
   3   3   2 1568.74  231.58
  -4  -3  -2  311.87  155.18
  -4  -3  -2  643.44  165.78
  -4  -3  -2  580.04  128.69
  -4  -3  -2  441.46  106.49
   4   3   2  362.46  121.99
   4   3   2  579.84  192.78
   4   3   2  328.87  156.98
   5  -4  -2  409.06  175.28
   5  -4  -2  416.56  109.69
   5  -4  -2  344.37  105.29
  -5   4   2  277.37  100.49
  -5   4   2  609.54  160.98
  -5   4   2  182.18   87.79
  -5   4   2  335.17  122.19
  -5   4   2  114.69   77.79
  -5   4   2  457.95  176.68
   4  -4  -2  907.51  118.39
   4  -4  -2  667.23  105.29
   4  -4  -2  538.15  123.49
   4  -4  -2  895.61  149.59
   4  -4  -2  735.53  182.68
   4  -4  -2  468.65  106.69
  -4   4   2  624.64  132.49
  -4   4   2  692.13  107.09
  -4   4   2  761.62  121.79
  -4   4   2  387.26  123.49
  -4   4   2  432.76  117.29
   3  -4  -2   23.00   41.00
   3  -4  -2   26.30   38.40
   3  -4  -2   80.29   70.39
   3  -4  -2   89.99   51.69
   3  -4  -2  -15.30   48.10
  -3   4   2   95.19   53.39
  -3   4   2   72.49   41.90
  -3   4   2   55.49   52.19
   2  -4  -2  662.03   81.29
   2  -4  -2  826.72  216.98
   2  -4  -2  683.23   77.09
   2  -4  -2  821.72   78.69
   2  -4  -2  821.92   78.19
   2  -4  -2  771.92   92.19
  -2   4   2  718.33  163.08
  -2   4   2  769.92   89.29
  -2   4   2  698.83   75.09
  -2   4   2  710.53   80.19
  -2   4   2  805.82   93.39
   1  -4  -2 1770.62  117.49
   1  -4  -2 1890.31  114.09
   1  -4  -2 1236.48  200.88
   1  -4  -2 1831.32  114.19
   1  -4  -2 1759.52  115.09
  -1   4   2 1633.44  123.79
  -1   4   2 1701.33  132.79
  -1   4   2 1925.51  111.99
   0  -4  -2 1420.56  110.79
   0  -4  -2 1504.25  113.39
   0  -4  -2 1537.95  117.79
   0  -4  -2 1087.69  206.88
   0  -4  -2 1349.27  104.79
   0   4   2 1491.65  112.79
   0   4   2 1601.94  167.78
   0   4   2 1502.85  102.29
   0   4   2 1494.55  164.28
  -1  -4  -2  787.62   90.79
  -1  -4  -2 1074.99  101.09
  -1  -4  -2  829.52   99.19
   1   4   2  982.60  164.98
   1   4   2  632.44  156.68
   1   4   2  842.12  172.68
   1   4   2  765.52   94.89
   1   4   2  802.62  140.79
   1   4   2  737.33   88.09
  -2  -4  -2   14.80   49.99
  -2  -4  -2  121.89   58.79
  -2  -4  -2   77.79   64.19
   2   4   2   65.79   51.39
   2   4   2  -54.69   72.79
   2   4   2   13.10   35.20
   2   4   2   -1.00   36.90
  -3  -4  -2  466.45  106.19
  -3  -4  -2  460.65  114.99
  -3  -4  -2  559.84  136.99
  -3  -4  -2  501.25  104.69
   3   4   2  508.75  149.39
   3   4   2  535.15  122.19
   3   4   2  599.34  210.08
   3   4   2  233.28  109.39
   3   4   2  377.46  162.28
   5  -5  -2  201.18   94.59
   5  -5  -2  260.07  258.07
   5  -5  -2  -79.19   92.29
   5  -5  -2   -0.80   56.19
  -5   5   2  -52.09   84.29
  -5   5   2  105.59  116.69
  -5   5   2    1.40  191.48
  -5   5   2   99.59  105.89
   4  -5  -2  978.60  132.69
   4  -5  -2 1117.19  131.69
   4  -5  -2  827.12  155.38
   4  -5  -2  692.83  138.79
   4  -5  -2 1005.70  180.18
  -4   5   2  788.12  147.29
  -4   5   2 1216.28  186.28
  -4   5   2 1064.49  134.89
  -4   5   2  791.92  193.78
  -4   5   2  785.52  148.09
  -4   5   2  792.02  147.19
   3  -5  -2 1120.09  256.57
   3  -5  -2 1345.47  122.49
   3  -5  -2 1565.54  139.99
   3  -5  -2 1433.06  130.49
   3  -5  -2 1195.28  141.09
  -3   5   2 1181.98  162.68
  -3   5   2 1421.76  127.49
  -3   5   2 1534.15  181.08
  -3   5   2 1069.99  144.69
  -3   5   2 1158.38  130.89
   2  -5  -2   60.89   38.60
   2  -5  -2   56.49   57.69
   2  -5  -2  161.38   52.99
   2  -5  -2   81.79   45.50
   2  -5  -2    5.60   32.10
   2  -5  -2   36.10   36.90
  -2   5   2   43.30   33.80
  -2   5   2    0.30   53.19
  -2   5   2   45.10   40.00
   1  -5  -2  183.58   96.49
   1  -5  -2  326.47   66.49
   1  -5  -2  302.97   64.89
   1  -5  -2  236.08   62.69
  -1   5   2  253.47   88.39
  -1   5   2  239.58   81.69
  -1   5   2  271.77   57.49
   0  -5  -2 2390.16  157.98
   0  -5  -2 2100.99  160.48
   0   5   2 2298.57  218.78
   0   5   2 2226.38  135.19
   0   5   2 2012.50  203.38
  -1  -5  -2 2029.20  161.38
  -1  -5  -2 1942.81  154.58
   1   5   2 1681.43  366.96
   1   5   2 1879.11  205.88
   1   5   2 1690.63  130.79
   1   5   2 1942.81  191.08
  -2  -5  -2  406.46  106.59
   2   5   2  176.18   73.29
   2   5   2  314.17  140.19
   2   5   2  180.68  105.79
   2   5   2  288.07  108.59
  -3  -5  -2  318.57  148.39
  -3  -5  -2   77.89  104.09
   3   5   2   24.00  136.39
   3   5   2  180.38  106.29
   3   5   2   98.69  108.99
   3   5   2 -147.49  143.69
   4  -6  -2  398.56  133.49
   4  -6  -2  331.27  100.59
   4  -6  -2  401.46  125.79
   4  -6  -2  314.77   95.69
   4  -6  -2   39.90  153.88
   4  -6  -2  180.38  109.49
  -4   6   2  621.74  162.38
  -4   6   2  196.48   89.49
  -4   6   2  331.67   98.09
  -4   6   2  142.09  103.49
  -4   6   2  433.46  143.59
  -4   6   2  327.37  143.79
  -4   6   2  257.67  106.19
   3  -6  -2  709.43  203.28
   3  -6  -2 1050.59  178.08
   3  -6  -2  728.63  131.69
   3  -6  -2  758.32  234.88
   3  -6  -2  840.52  128.39
  -3   6   2  812.02  139.09
  -3   6   2  892.01  124.69
  -3   6   2  863.31  120.19
  -3   6   2  772.62  173.68
   2  -6  -2 1377.26  276.47
   2  -6  -2 1073.99  134.59
   2  -6  -2 1468.75  126.89
   2  -6  -2 1500.75  127.69
  -2   6   2 1077.79  116.39
  -2   6   2  939.91  237.58
  -2   6   2 1377.56  187.78
  -2   6   2 1256.07  148.59
   1  -6  -2  263.77   72.49
   1  -6  -2   86.99  102.89
  -1   6   2  146.69   73.89
  -1   6   2  101.19   66.49
  -1   6   2  218.98   59.69
   0  -6  -2   84.89   64.09
   0  -6  -2  226.48   80.79
   0   6   2   59.29   50.59
   0   6   2   17.40   49.40
   0   6   2  147.59   53.49
  -1  -6  -2  451.15  123.09
   1   6   2  573.44  120.89
   1   6   2  729.53  164.28
   1   6   2  698.23  173.48
   1   6   2  783.52  161.08
  -2  -6  -2  483.05  158.88
  -2  -6  -2  570.54  127.29
   2   6   2  329.47  141.89
   2   6   2  488.85  133.89
   2   6   2  710.53  197.18
   2   6   2  707.13  173.08
   3  -7  -2  373.56  176.58
   3  -7  -2  355.06   93.99
   3  -7  -2  452.85  265.37
   3  -7  -2  456.35  148.29
   3  -7  -2  267.37   92.79
  -3   7   2  116.59   80.19
  -3   7   2  260.37   99.69
   2  -7  -2  558.54  190.58
   2  -7  -2  416.16  126.09
  -2   7   2  548.35  142.29
  -2   7   2  788.32  118.69
   1  -7  -2  540.15  103.29
   1  -7  -2  407.36  134.69
  -1   7   2  287.87   95.39
  -1   7   2  634.64  101.69
  -1   7   2  524.45  163.18
   0  -7  -2   45.70   68.19
   0  -7  -2  173.88  117.19
   0   7   2    8.70   46.10
   0   7   2   15.50   91.19
  -1  -7  -2 -151.68  173.28
  -1  -7  -2   38.80   87.59
   1   7   2   36.60   60.79
   1   7   2   14.80   51.79
   1   7  -3 -170.68  130.59
   0  -7   3  -85.99  308.67
  -1   7  -3  566.04  124.89
   1  -7   3  544.35  175.88
  -2   7  -3  337.87  112.09
  -2   7  -3  454.35  137.99
  -3   7  -3  179.48   88.29
  -3   7  -3  102.59   72.09
   3  -7   3  183.08  112.79
   3  -7   3   88.09   61.79
   3  -7   3  142.99   74.99
   2   6  -3  352.06  173.68
   1   6  -3  474.85  144.39
  -1  -6   3  337.97  159.28
   0  -6   3  -35.60  110.89
  -1   6  -3  295.47   87.69
   1  -6   3  236.18  114.09
  -2   6  -3 1343.57  160.78
  -2   6  -3 1278.17  129.19
   2  -6   3 1226.08  136.19
  -3   6  -3  282.27   84.19
  -3   6  -3  458.55  125.09
  -3   6  -3  422.56  202.08
  -3   6  -3  468.55  117.19
   3  -6   3  468.05  115.09
   3  -6   3  585.24  155.38
   3  -6   3  596.34  159.68
  -4   6  -3   82.49   81.39
  -4   6  -3   39.20   54.49
  -4   6  -3  101.19   91.49
  -4   6  -3 -186.48  154.28
   4  -6   3  177.28   79.89
   4  -6   3   30.00   84.19
   4  -6   3  -11.20   34.60
   4  -6   3  -54.29  188.88
   3   5  -3  196.28  144.19
   2   5  -3  220.88  122.29
   1   5  -3 1203.08  191.58
  -1  -5   3  968.40  155.28
   0  -5   3  693.43  270.67
   0  -5   3 1372.26  171.18
  -1   5  -3  -13.60   39.10
  -1   5  -3   45.90   48.60
   1  -5   3  282.07  221.08
   1  -5   3  -10.20   64.39
  -2   5  -3  201.18   63.89
  -2   5  -3  230.48   75.79
  -2   5  -3  204.28   89.59
   2  -5   3  158.28   49.20
   2  -5   3 -177.88  255.07
   2  -5   3  249.28   65.69
  -3   5  -3 1123.79  114.99
  -3   5  -3 1152.58  153.88
  -3   5  -3 1063.99  136.99
   3  -5   3  843.22  141.39
   3  -5   3 1084.29  120.49
   3  -5   3 1237.28  166.18
   3  -5   3  913.21  179.18
  -4   5  -3  539.35  124.79
  -4   5  -3  507.55  161.08
  -4   5  -3  405.06  142.89
  -4   5  -3  633.84  126.09
   4  -5   3  600.04  120.29
   4  -5   3  684.23  173.78
   4  -5   3  379.36  147.99
   4  -5   3  450.55  156.08
   4  -5   3  656.33  120.29
   4  -5   3  506.95  127.09
   3   4  -3  294.87  156.28
  -3  -4   3   32.20  170.38
   2   4  -3   66.99  116.49
  -2  -4   3  -25.20  104.29
   1   4  -3  922.31  156.68
  -1  -4   3  681.33  245.58
  -1  -4   3  793.82  133.49
   0   4  -3  956.40  109.59
   0   4  -3  818.82  148.29
   0  -4   3  874.51  125.69
  -1   4  -3  664.43  112.89
  -1   4  -3  563.14   64.99
  -1   4  -3  350.06  130.39
   1  -4   3  538.35   96.29
   1  -4   3  503.65   65.39
  -2   4  -3  350.06   87.99
  -2   4  -3  399.56  104.39
  -2   4  -3  264.17   56.09
  -2   4  -3  298.97   68.59
   2  -4   3  368.26   91.19
   2  -4   3  353.86   63.59
   2  -4   3  336.67   62.99
  -3   4  -3  303.97   76.19
  -3   4  -3  411.06  128.99
  -3   4  -3  275.47   71.99
   3  -4   3  319.77   73.39
   3  -4   3  344.57   73.49
   3  -4   3  246.08   78.69
  -4   4  -3  906.01  215.08
  -4   4  -3  894.71  161.78
  -4   4  -3  570.84  128.39
  -4   4  -3  679.73  119.19
  -4   4  -3  564.24  124.19
  -4   4  -3  943.41  140.79
   4  -4   3  269.07  139.39
   4  -4   3  584.34  167.08
   4  -4   3  659.73  177.58
   4  -4   3  618.44  124.39
   4   3  -3  508.65  142.49
   4   3  -3  461.95  179.38
  -4  -3   3  614.14  146.59
  -4  -3   3  733.93  117.29
  -4  -3   3  817.42  128.59
   3   3  -3 1171.78  131.79
  -3  -3   3 1344.17  129.79
  -3  -3   3 1257.77  131.09
  -3  -3   3 1331.07  112.49
   2   3  -3  158.58   83.39
   2   3  -3  212.68   59.69
  -2  -3   3   65.89   84.79
  -2  -3   3  160.78   48.30
   1   3  -3  301.17   92.69
  -1  -3   3  414.86  122.79
   0   3  -3 1213.68  108.79
   0   3  -3 1234.78  123.39
   0  -3   3 1333.37  116.39
   0  -3   3  935.61  173.28
  -1   3  -3 2194.48  147.49
  -1   3  -3 2062.39  141.09
  -1   3  -3 2261.37  173.38
   1  -3   3 2036.70  145.49
   1  -3   3 2113.29  108.89
   1  -3   3 2115.49  110.19
   1  -3   3 1905.51  140.69
  -2   3  -3  148.49   43.60
  -2   3  -3  256.77   80.19
  -2   3  -3  214.78   71.79
  -2   3  -3  255.67   74.39
   2  -3   3  115.79   42.40
   2  -3   3  144.99  113.69
   2  -3   3  161.78   51.39
   2  -3   3   34.30   56.29
   2  -3   3  201.38   66.99
  -3   3  -3  543.25   90.59
  -3   3  -3  519.15   82.29
  -3   3  -3  563.14  142.59
  -3   3  -3  375.56   81.79
  -3   3  -3  466.35   92.39
   3  -3   3  484.55   90.69
   3  -3   3  506.05   99.89
   3  -3   3  459.55  129.29
   3  -3   3  486.05   77.59
   3  -3   3  393.36   97.79
   3  -3   3  520.45   95.79
  -4   3  -3  787.22  117.09
  -4   3  -3  876.31  152.08
  -4   3  -3  612.54  121.89
  -4   3  -3  471.35  116.69
  -4   3  -3  941.81  224.48
   4  -3   3  438.76  146.29
   4  -3   3  908.61  150.48
   4  -3   3  580.34  135.39
   4  -3   3  724.43  115.79
  -5   3  -3  550.94  136.39
  -5   3  -3  623.04  165.68
  -5   3  -3  734.23  208.88
  -5   3  -3  513.75  191.48
   5  -3   3  471.15  130.59
   5  -3   3  921.61  245.28
   5  -3   3  958.10  379.66
   5  -3   3  903.71  162.38
   4   2  -3  377.66  158.68
   4   2  -3  442.46   88.29
   4   2  -3  553.04  159.68
  -4  -2   3  517.85   99.09
  -4  -2   3  558.54  136.09
  -4  -2   3  365.96   91.89
   3   2  -3  596.44  127.79
   3   2  -3  717.13   83.99
   3   2  -3  504.45   78.49
   3   2  -3  474.55  138.39
  -3  -2   3  632.64   76.49
  -3  -2   3  600.74   90.99
  -3  -2   3  564.44   82.59
  -3  -2   3  686.83  131.59
   2   2  -3 1633.74  174.28
   2   2  -3 1780.82  140.29
  -2  -2   3 1640.24   98.89
  -2  -2   3 1686.93   97.49
  -2  -2   3 1860.91  138.79
  -2  -2   3 1634.44  116.69
   1   2  -3  268.77   60.79
   1   2  -3  129.49   58.59
  -1  -2   3  247.08   49.30
  -1  -2   3  276.87   72.89
  -1  -2   3  230.48   47.70
   0   2  -3  914.21   87.09
   0   2  -3  971.10   98.09
   0  -2   3  792.52   92.39
   0  -2   3  808.52  132.09
   0  -2   3  899.21   67.49
   0  -2   3 1187.68  224.08
   0  -2   3  999.90   79.09
  -1   2  -3 2796.62  158.38
  -1   2  -3 2583.54  130.79
  -1   2  -3 2784.52  129.49
  -1   2  -3 2782.22  178.08
  -1   2  -3 2904.51  176.18
   1  -2   3 2489.95  152.78
   1  -2   3 2660.43  132.99
   1  -2   3 2716.43  131.49
   1  -2   3 2430.46  192.38
   1  -2   3 2520.05  170.18
  -2   2  -3 1852.91  114.29
  -2   2  -3 1719.93  123.99
  -2   2  -3 1618.94  113.89
  -2   2  -3 1674.13  120.19
  -2   2  -3 1490.85  108.69
  -2   2  -3 1749.82  155.78
   2  -2   3 1477.15  125.99
   2  -2   3 1812.12  116.59
   2  -2   3 1725.63  123.39
   2  -2   3 1756.02  110.89
   2  -2   3 1957.20  127.69
   2  -2   3 1752.02  162.48
  -3   2  -3  397.16   76.89
  -3   2  -3  212.78   71.99
  -3   2  -3  301.57   68.39
  -3   2  -3  399.56   81.39
  -3   2  -3  240.88   91.99
   3  -2   3  303.17   79.89
   3  -2   3  405.76   83.09
   3  -2   3  457.95   88.39
   3  -2   3  366.16   71.69
   3  -2   3  297.77   84.59
   3  -2   3  492.05  138.89
  -4   2  -3  208.88  106.99
  -4   2  -3  249.28   76.59
  -4   2  -3  319.37   77.29
  -4   2  -3  163.18   90.69
  -4   2  -3  213.58   91.39
   4  -2   3  111.09   94.59
   4  -2   3  272.77   79.59
   4  -2   3  383.06  155.48
   4  -2   3  239.88  102.99
   4  -2   3  289.67   76.59
   4  -2   3  110.79   92.69
  -5   2  -3  460.25  187.18
  -5   2  -3  972.10  187.68
  -5   2  -3  907.81  168.08
  -5   2  -3  388.16  196.48
  -5   2  -3  895.81  211.58
   5  -2   3  732.43  150.98
   5  -2   3  963.00  210.88
   5  -2   3  924.61  171.58
   5   1  -3  300.07  219.18
   5   1  -3  282.67  146.89
   5   1  -3  259.37  109.79
   5   1  -3    2.10  178.48
  -5  -1   3  381.66  102.39
  -5  -1   3  375.86  145.79
  -5  -1   3  315.07  156.48
   4   1  -3  114.09  107.19
   4   1  -3   55.89   59.09
   4   1  -3   23.80   39.40
   4   1  -3   20.10   69.09
   4   1  -3  -83.29  106.69
  -4  -1   3  -11.10   23.50
  -4  -1   3    5.60   45.50
  -4  -1   3  118.79   54.19
  -4  -1   3   37.90   57.39
  -4  -1   3   17.80   69.99
   3   1  -3 1083.59  135.19
   3   1  -3 1047.10   95.99
   3   1  -3  951.70   92.39
   3   1  -3 1091.49  129.59
  -3  -1   3 1139.99   94.79
  -3  -1   3 1116.89   99.09
  -3  -1   3  935.61  122.39
  -3  -1   3  897.11  101.39
  -3  -1   3 1046.90   91.59
  -3  -1   3 1037.50   96.59
   2   1  -3 1860.61  105.19
   2   1  -3 2022.90  160.68
   2   1  -3 1749.92  211.08
   2   1  -3 2079.59  113.39
  -2  -1   3 2110.79  113.09
  -2  -1   3 2001.50  110.99
  -2  -1   3 1962.60  109.09
  -2  -1   3 2077.09  157.18
  -2  -1   3 1893.71  124.29
   1   1  -3 1213.98  108.09
   1   1  -3 1017.00   66.59
   1   1  -3 1196.28   69.29
   1   1  -3 1006.00   72.29
  -1  -1   3 1183.58   69.09
  -1  -1   3 1198.18   70.39
  -1  -1   3 1231.68  103.69
   0   1  -3  490.25   47.00
   0   1  -3  525.65   45.00
   0   1  -3  380.26   50.09
   0  -1   3  364.76   64.39
   0  -1   3  498.45   46.80
   0  -1   3  418.26   87.49
   0  -1   3  482.75   49.80
   0  -1   3  415.36   90.29
   0  -1   3  467.15   48.00
  -1   1  -3 1865.81  105.59
  -1   1  -3 1403.66  101.49
  -1   1  -3 1691.63   97.09
  -1   1  -3 1398.26   96.99
  -1   1  -3 1720.13  135.59
  -1   1  -3 1549.05   96.49
   1  -1   3 1536.25  105.89
   1  -1   3 1375.46  100.09
   1  -1   3 1690.73   92.99
   1  -1   3 1668.13   97.59
   1  -1   3 1539.15  132.59
   1  -1   3 1562.54   93.59
   1  -1   3 1642.44   95.69
  -2   1  -3 2553.64  199.38
  -2   1  -3 2536.25  151.48
  -2   1  -3 2788.52  149.79
  -2   1  -3 2580.14  149.39
  -2   1  -3 2558.04  151.48
  -2   1  -3 2444.66  141.49
   2  -1   3 2604.84  158.38
   2  -1   3 2610.24  161.48
   2  -1   3 2795.72  151.38
   2  -1   3 2743.53  212.18
   2  -1   3 2510.25  153.78
   2  -1   3 2527.75  155.58
  -3   1  -3 1738.43  145.59
  -3   1  -3 1804.02  135.09
  -3   1  -3 2025.00  139.99
  -3   1  -3 1776.62  185.18
  -3   1  -3 1669.13  140.39
   3  -1   3 1707.23  145.59
   3  -1   3 1753.62  135.29
   3  -1   3 1828.12  129.19
   3  -1   3 1756.02  192.88
   3  -1   3 1433.26  146.39
   3  -1   3 1654.93  158.58
  -4   1  -3   36.10   73.09
  -4   1  -3  147.49   64.39
  -4   1  -3   50.89   82.49
  -4   1  -3  197.38  100.49
  -4   1  -3  143.89   60.19
  -4   1  -3   63.59   65.29
   4  -1   3   16.60   84.19
   4  -1   3   94.29   90.79
   4  -1   3   94.99   68.39
   4  -1   3  -29.30  116.69
   4  -1   3   61.89   64.59
   4  -1   3   77.09   74.19
  -5   1  -3  -16.50  177.08
  -5   1  -3  -62.69   84.59
  -5   1  -3  129.29  197.18
  -5   1  -3  217.68  142.49
  -5   1  -3   37.30   70.19
   5  -1   3   40.70   79.09
   5  -1   3  287.57  116.89
   5  -1   3  152.98   99.09
   5   0  -3  710.53  127.89
   5   0  -3  524.55  211.38
   5   0  -3  292.17  167.28
   5   0  -3  406.56  147.59
   5   0  -3  745.03  205.38
  -5   0   3  539.95  116.79
  -5   0   3  788.62  138.69
  -5   0   3  426.66  150.18
  -5   0   3  511.25  113.39
  -5   0   3  492.05  133.99
  -5   0   3  397.06  137.89
   4   0  -3  431.36   85.69
   4   0  -3  321.67   80.39
   4   0  -3  509.45  152.48
   4   0  -3  416.16  153.78
   4   0  -3  373.66   82.99
  -4   0   3  466.15   99.69
  -4   0   3  548.05  140.09
  -4   0   3  505.15   91.49
  -4   0   3  390.86   87.69
  -4   0   3  469.55   90.49
  -4   0   3  542.55   96.59
   3   0  -3   38.50   43.60
   3   0  -3   55.89   38.20
   3   0  -3  -52.39   41.60
   3   0  -3  -14.20   37.60
  -3   0   3   40.50   33.20
  -3   0   3   30.00   28.00
  -3   0   3   36.20   31.30
  -3   0   3   75.59   39.20
  -3   0   3   17.00   37.30
  -3   0   3   11.90   36.60
   2   0  -3 2736.93  139.69
   2   0  -3 2930.91  144.39
   2   0  -3 3006.70  146.09
   2   0  -3 2531.65  134.59
   2   0  -3 2158.98  218.58
  -2   0   3 2948.61  196.28
  -2   0   3 2784.92  142.69
  -2   0   3 3013.10  157.08
  -2   0   3 2786.52  140.59
  -2   0   3 2946.51  153.18
  -2   0   3 2705.43  196.68
   1   0  -3 2279.97  117.69
   1   0  -3 1998.70  185.38
   1   0  -3 2518.35  120.99
   1   0  -3 2703.33  126.59
   1   0  -3 2549.84  126.69
  -1   0   3 2415.66  117.79
  -1   0   3 2527.05  175.88
  -1   0   3 2377.36  121.49
  -1   0   3 2656.03  128.09
  -1   0   3 2474.35  121.39
  -1   0   3 2638.64  123.19
   0   0  -3 4548.45  190.98
   0   0  -3 4709.93  203.98
   0   0  -3 4117.79  196.18
   0   0  -3 4710.23  194.88
   0   0  -3 4340.37  196.38
   0   0   3 4654.93  201.48
   0   0   3 4751.02  205.88
   0   0   3 4648.63  197.78
   0   0   3 4537.25  194.28
   0   0   3 4718.73  283.47
   0   0   3 4581.54  199.08
   0   0   3 4314.37  204.08
  -1   0  -3    0.50   22.00
  -1   0  -3   29.80   22.90
  -1   0  -3    9.10   22.60
  -1   0  -3  -19.30   20.50
   1   0   3   32.80   22.90
   1   0   3   -7.10   19.80
   1   0   3   13.20   19.70
   1   0   3   -6.00   32.20
   1   0   3  -12.50   26.00
  -2   0  -3 1768.92  166.68
  -2   0  -3 1506.65  123.19
  -2   0  -3 1908.01  118.29
  -2   0  -3 1981.30  128.09
  -2   0  -3 1865.21  119.99
   2   0   3 1517.95  117.69
   2   0   3 1766.72  130.99
   2   0   3 1785.12  115.59
   2   0   3 1997.60  180.28
   2   0   3 1918.91  123.99
   2   0   3 1709.73  125.69
  -3   0  -3 1934.31  153.08
  -3   0  -3 2151.98  210.48
  -3   0  -3 2149.19  157.88
  -3   0  -3 2055.79  150.18
  -3   0  -3 1610.14  229.98
   3   0   3 2100.89  159.88
   3   0   3 1911.31  157.18
   3   0   3 2118.59  154.28
   3   0   3 2282.17  223.58
   3   0   3 2041.40  166.08
   3   0   3 2360.36  184.88
  -4   0  -3  849.91  142.79
  -4   0  -3  940.01  150.48
  -4   0  -3  957.30  164.38
  -4   0  -3 1041.10  240.98
  -4   0  -3  716.43  136.59
   4   0   3  849.72  197.08
   4   0   3 1051.59  137.79
   4   0   3  597.54  128.99
   4   0   3  929.21  139.29
   4   0   3  892.71  222.48
   4   0   3  467.65  146.29
   5  -1  -3  422.76  140.29
   5  -1  -3  793.62  230.18
   5  -1  -3  617.04  119.69
   5  -1  -3  316.37  168.08
   5  -1  -3  626.44  126.69
  -5   1   3  540.15  107.99
  -5   1   3  423.06  178.28
  -5   1   3  487.25  166.58
  -5   1   3  374.56  136.69
  -5   1   3  611.44  121.89
  -5   1   3  661.33  126.89
   4  -1  -3  520.85  103.19
   4  -1  -3  796.42  101.09
   4  -1  -3  464.35   94.99
   4  -1  -3  836.12  190.28
   4  -1  -3  775.32  102.59
  -4   1   3  750.62  135.79
  -4   1   3  569.24   96.49
  -4   1   3  755.92  112.69
  -4   1   3  552.94  143.69
  -4   1   3  526.75  100.39
  -4   1   3  728.43   94.19
   3  -1  -3  180.88   46.00
   3  -1  -3  124.79   47.80
   3  -1  -3  153.88   46.90
   3  -1  -3  137.49   77.69
   3  -1  -3  130.69   50.89
  -3   1   3  145.89   51.69
  -3   1   3  129.49   45.10
  -3   1   3  109.89   39.90
  -3   1   3   80.49   37.30
  -3   1   3  174.18   47.70
   2  -1  -3  107.09   34.90
   2  -1  -3   92.79   32.80
   2  -1  -3  116.19   35.70
   2  -1  -3  105.79   55.09
   2  -1  -3  129.69   36.90
   2  -1  -3  114.79   34.10
  -2   1   3  132.19   35.50
  -2   1   3   47.20   36.80
  -2   1   3  138.79   36.90
  -2   1   3  131.09   39.40
  -2   1   3  145.19   40.90
  -2   1   3  124.09   39.30
   1  -1  -3 3352.26  153.78
   1  -1  -3 3480.85  162.48
   1  -1  -3 3465.45  163.48
   1  -1  -3 3327.37  228.88
  -1   1   3 3274.37  153.68
  -1   1   3 3218.18  156.88
  -1   1   3 3120.79  155.68
  -1   1   3 3404.06  159.08
  -1   1   3 3478.95  159.18
  -1   1   3 3286.57  223.98
   0  -1  -3 3580.74  167.58
   0  -1  -3 3914.91  179.58
   0  -1  -3 3706.33  175.58
   0  -1  -3 3596.24  165.08
   0  -1  -3 3644.44  273.07
   0  -1  -3 3813.42  180.08
   0   1   3 3452.55  178.38
   0   1   3 3543.95  255.97
   0   1   3 3631.74  165.48
   0   1   3 3805.02  172.88
   0   1   3 3249.18  172.78
   0   1   3 3753.52  176.08
  -1  -1  -3 1930.91  122.09
  -1  -1  -3 1555.94  114.39
  -1  -1  -3 1880.41  114.59
  -1  -1  -3 1945.11  119.99
   1   1   3 1856.61  120.39
   1   1   3 1930.61  116.29
   1   1   3 1993.60  168.78
   1   1   3 1848.32  119.79
   1   1   3 2223.88  151.58
  -2  -1  -3   17.30   26.80
  -2  -1  -3   68.19   49.30
  -2  -1  -3    7.00   21.20
  -2  -1  -3   33.00   39.00
  -2  -1  -3   16.10   33.60
   2   1   3  -50.59   30.40
   2   1   3    7.10   22.00
   2   1   3  -14.50   54.79
   2   1   3    7.60   42.80
   2   1   3   50.49   35.80
   2   1   3  -32.40   49.99
   2   1   3   20.70   30.20
  -3  -1  -3  456.25   96.19
  -3  -1  -3  349.96   80.09
  -3  -1  -3  411.26  126.39
  -3  -1  -3  232.68   73.09
  -3  -1  -3  203.48   92.29
   3   1   3  309.17  108.69
   3   1   3  467.05  147.19
   3   1   3  306.27  117.49
   3   1   3  412.46   80.29
   3   1   3  515.85   88.09
  -4  -1  -3  790.72  125.69
  -4  -1  -3  858.01  217.48
  -4  -1  -3  423.76  137.39
  -4  -1  -3  792.82  147.99
   4   1   3  915.51  142.09
   4   1   3  579.34  130.59
   4   1   3  984.30  226.98
   4   1   3  640.34  139.29
   4   1   3  710.13  178.68
   4   1   3  768.72  192.98
   4   1   3  865.01  149.69
   5  -2  -3  146.79  134.09
   5  -2  -3  383.16  107.99
   5  -2  -3  281.77   93.59
   5  -2  -3  141.19  245.18
   5  -2  -3  282.67  128.19
   5  -2  -3  365.56  157.28
  -5   2   3  347.47  140.79
  -5   2   3  585.54  148.99
  -5   2   3  265.77   86.29
  -5   2   3  309.57  132.79
  -5   2   3  259.77   96.79
   4  -2  -3 1863.01  155.08
   4  -2  -3 1545.35  161.18
   4  -2  -3 1713.83  158.18
   4  -2  -3 1528.65  153.38
   4  -2  -3 1796.22  219.78
  -4   2   3 1929.81  147.99
  -4   2   3 1526.35  165.18
  -4   2   3 1578.74  161.48
  -4   2   3 1742.53  143.69
  -4   2   3 1436.26  297.77
  -4   2   3 1892.11  152.28
   3  -2  -3 1410.66  116.49
   3  -2  -3 1258.27  111.29
   3  -2  -3 1520.95  177.28
   3  -2  -3 1278.17  116.69
   3  -2  -3 1336.77  111.89
  -3   2   3 1482.35  117.39
  -3   2   3 1540.25  114.39
  -3   2   3 1429.26  120.59
  -3   2   3 1287.67  155.18
  -3   2   3 1451.15  114.19
  -3   2   3 1447.56  117.39
   2  -2  -3  381.86   64.49
   2  -2  -3  336.47   58.79
   2  -2  -3  433.76   59.39
   2  -2  -3  380.06  111.69
   2  -2  -3  438.66   58.49
  -2   2   3  366.36   65.79
  -2   2   3  319.17   97.09
  -2   2   3  281.27   58.59
  -2   2   3  420.16   54.79
  -2   2   3  321.07   56.89
   1  -2  -3 2032.00  184.38
   1  -2  -3 1962.50  117.79
   1  -2  -3 1903.21  110.19
   1  -2  -3 2069.69  120.59
   1  -2  -3 1920.21  108.99
   1  -2  -3 1864.71  125.19
  -1   2   3 2080.69  115.99
  -1   2   3 1797.52  112.39
  -1   2   3 1875.01  108.99
  -1   2   3 1954.90  113.09
  -1   2   3 1989.00  118.09
  -1   2   3 2004.40  176.58
   0  -2  -3 3213.58  267.77
   0  -2  -3 3742.83  182.18
   0  -2  -3 3426.56  179.08
   0  -2  -3 3370.46  166.58
   0  -2  -3 3613.44  177.28
   0  -2  -3 3360.96  158.48
   0   2   3 3023.20  170.98
   0   2   3 3384.66  168.28
   0   2   3 3489.75  172.58
   0   2   3 3205.08  255.57
   0   2   3 3185.98  191.68
  -1  -2  -3 1972.20  128.09
  -1  -2  -3 1294.07  192.68
  -1  -2  -3 1783.92  114.09
  -1  -2  -3 1440.56  172.68
  -1  -2  -3 1703.73  118.99
   1   2   3 1735.83  114.39
   1   2   3 1553.34  127.09
   1   2   3 1530.75  120.99
   1   2   3 1695.03  124.19
   1   2   3 1457.65  155.68
   1   2   3 1678.93  141.29
   1   2   3 1517.15  190.28
  -2  -2  -3  903.71   98.29
  -2  -2  -3 1141.69  101.09
  -2  -2  -3  746.33  102.99
  -2  -2  -3  909.91  109.69
   2   2   3  944.91  156.08
   2   2   3 1033.90  107.19
   2   2   3 1064.39  195.08
   2   2   3 1040.50  103.89
   2   2   3  797.02  117.29
  -3  -2  -3  120.59   58.89
  -3  -2  -3   41.50   54.59
  -3  -2  -3  158.88   75.29
  -3  -2  -3   15.60   55.09
   3   2   3  169.68  110.19
   3   2   3    5.10   61.39
   3   2   3   26.50   97.09
   3   2   3   81.19   63.29
   3   2   3  114.79   65.49
   3   2   3  -27.00   93.59
  -4  -2  -3  291.57  167.98
  -4  -2  -3  336.17  114.49
  -4  -2  -3  189.08  116.89
  -4  -2  -3  558.44  151.38
  -4  -2  -3  381.46  103.19
   4   2   3  378.46  142.09
   4   2   3  425.76  118.79
   4   2   3  345.37  147.49
   4   2   3  564.34  141.09
   4   2   3  264.97  161.28
   4   2   3  105.69  194.48
   5  -3  -3 -215.28  144.29
   5  -3  -3  -79.29   73.89
   5  -3  -3  -17.80   38.10
   5  -3  -3   86.09  138.99
   5  -3  -3   -9.30   78.39
   5  -3  -3  114.09  143.09
  -5   3   3  153.18  158.48
  -5   3   3  -11.10   32.40
  -5   3   3  146.39   90.89
  -5   3   3  392.96  146.89
  -5   3   3   42.50   69.99
   4  -3  -3  343.07   93.39
   4  -3  -3  406.06   82.99
   4  -3  -3  409.56   97.09
   4  -3  -3  322.17   90.89
   4  -3  -3  649.04  178.98
  -4   3   3  159.08   90.99
  -4   3   3  297.17  109.69
  -4   3   3  348.47   75.99
  -4   3   3  344.87   79.39
  -4   3   3  472.75   96.99
  -4   3   3  355.66  120.69
   3  -3  -3 2831.22  262.87
   3  -3  -3 2892.91  179.48
   3  -3  -3 2730.23  173.28
   3  -3  -3 3106.09  181.38
   3  -3  -3 2841.42  186.68
   3  -3  -3 3099.99  182.28
  -3   3   3 2978.40  179.08
  -3   3   3 2989.00  178.78
  -3   3   3 2819.82  246.68
  -3   3   3 3108.69  216.98
   2  -3  -3 1711.23  138.19
   2  -3  -3 1780.92  143.09
   2  -3  -3 1833.92  192.08
   2  -3  -3 1815.52  126.79
   2  -3  -3 1812.12  124.29
   2  -3  -3 1676.73  118.19
  -2   3   3 1703.13  123.29
  -2   3   3 1619.74  170.68
  -2   3   3 1757.62  119.09
  -2   3   3 1830.62  120.89
  -2   3   3 1711.23  123.39
   1  -3  -3 1200.68   89.49
   1  -3  -3 1140.19  146.69
   1  -3  -3  697.73  123.39
   1  -3  -3  824.22   80.59
   1  -3  -3 1105.99   89.49
   1  -3  -3  990.70   81.59
  -1   3   3 1011.90   84.89
  -1   3   3 1059.09  132.79
  -1   3   3 1011.30   80.29
  -1   3   3  733.93   96.19
  -1   3   3  828.12   91.19
   0  -3  -3  145.39   48.40
   0  -3  -3   50.09  153.48
   0  -3  -3  228.28   53.89
   0  -3  -3  153.38   53.79
   0  -3  -3  169.78   50.19
   0   3   3  193.68   49.99
   0   3   3  201.08   82.19
   0   3   3  174.78   47.70
   0   3   3  114.09   49.50
   0   3   3   68.09   54.59
   0   3   3  161.88   74.39
  -1  -3  -3 2541.45  163.08
  -1  -3  -3 2448.16  153.58
   1   3   3 2726.23  237.78
   1   3   3 2705.63  226.68
   1   3   3 2843.52  165.38
   1   3   3 2631.44  263.07
   1   3   3 2932.41  203.78
   1   3   3 2409.76  176.38
   1   3   3 2392.86  154.68
   1   3   3 2631.24  167.38
  -2  -3  -3 1308.87  142.79
  -2  -3  -3 1306.57  129.09
  -2  -3  -3 1422.36  128.49
  -2  -3  -3 1159.08  135.29
   2   3   3 1026.70  190.68
   2   3   3 1361.96  156.28
   2   3   3 1528.65  185.18
   2   3   3 1283.67  268.67
   2   3   3 1477.75  127.19
  -3  -3  -3  320.37   88.69
  -3  -3  -3  175.18  190.88
  -3  -3  -3  261.87   95.29
   3   3   3  250.57  111.79
   3   3   3  109.39   84.29
   3   3   3  273.07   94.09
   3   3   3  328.07  131.89
   5  -4  -3  706.43  178.78
   5  -4  -3  475.45  121.29
   5  -4  -3  102.89  167.08
   5  -4  -3  604.24  129.89
  -5   4   3  321.97  103.69
  -5   4   3  488.85  185.18
  -5   4   3  444.76  125.09
  -5   4   3  442.76  189.28
  -5   4   3  405.36  174.78
   4  -4  -3  -15.60   56.19
   4  -4  -3   19.50   48.50
   4  -4  -3  -95.19   53.49
   4  -4  -3   31.10   98.39
   4  -4  -3  -33.60   83.89
   4  -4  -3 -118.79   78.89
  -4   4   3  -24.10   95.29
  -4   4   3   -6.20   22.00
  -4   4   3   15.50   64.99
  -4   4   3 -148.69   85.39
  -4   4   3   66.29   56.99
   3  -4  -3  337.57   77.69
   3  -4  -3  393.46   84.79
   3  -4  -3  405.46   80.59
   3  -4  -3  561.94  176.38
  -3   4   3  383.46   86.49
  -3   4   3  435.96   84.09
  -3   4   3  477.95   91.69
  -3   4   3  483.85   86.79
  -3   4   3  215.48   89.99
   2  -4  -3 1831.92  205.78
   2  -4  -3 1773.62  158.38
   2  -4  -3 1512.95  123.49
   2  -4  -3 1845.52  131.49
   2  -4  -3 1745.43  133.69
   2  -4  -3 1827.72  152.98
  -2   4   3 1502.95  175.48
  -2   4   3 1489.55  133.29
  -2   4   3 1770.12  125.99
  -2   4   3 1744.83  126.39
   1  -4  -3  857.71  188.18
   1  -4  -3 1126.79   99.59
   1  -4  -3 1065.29  101.89
   1  -4  -3 1044.50   96.69
   1  -4  -3 1115.79  104.09
   1  -4  -3 1042.50  103.19
  -1   4   3 1053.59  143.89
  -1   4   3 1316.37  100.19
  -1   4   3  948.81  116.79
  -1   4   3  906.11   92.89
   0  -4  -3  318.17   64.39
   0  -4  -3  258.17   63.09
   0  -4  -3  186.18   54.09
   0  -4  -3 -190.78  244.78
   0  -4  -3  284.67   67.19
   0   4   3  235.58   92.39
   0   4   3  207.08   81.69
   0   4   3  269.57   64.49
   0   4   3  184.38   64.09
   0   4   3  211.58   91.89
  -1  -4  -3  486.25   98.09
  -1  -4  -3  332.67   84.09
  -1  -4  -3  605.54  108.39
  -1  -4  -3  571.34  103.89
   1   4   3  384.56   77.59
   1   4   3  288.47  107.39
   1   4   3  305.27   92.49
   1   4   3  493.35  158.88
  -2  -4  -3  481.15  100.99
  -2  -4  -3  422.76  115.69
  -2  -4  -3  444.26  105.19
   2   4   3  565.04  117.29
   2   4   3  466.75  169.98
   2   4   3  424.56  143.49
   2   4   3  811.32  200.78
   2   4   3  438.26  118.19
  -3  -4  -3  644.14  166.18
  -3  -4  -3  553.64  120.09
  -3  -4  -3  361.36  116.69
  -3  -4  -3  141.79  131.39
   3   4   3  610.94  163.78
   3   4   3  310.47  162.48
   3   4   3  484.85  123.69
   3   4   3  351.46  200.98
   3   4   3  263.87  179.88
   4  -5  -3  345.57  138.69
   4  -5  -3  361.06   92.69
   4  -5  -3  366.96   94.79
   4  -5  -3  102.89  136.09
  -4   5   3  106.69  134.99
  -4   5   3  377.46  113.29
  -4   5   3  330.97  129.19
  -4   5   3  370.16  103.69
  -4   5   3  355.36  128.09
   3  -5  -3  -33.20   47.10
   3  -5  -3  108.79   54.89
   3  -5  -3 -162.28   87.09
   3  -5  -3   93.79   77.99
   3  -5  -3    2.20   72.89
  -3   5   3   32.00   85.09
  -3   5   3   28.80   33.80
  -3   5   3 -182.68  149.19
  -3   5   3   22.60   51.79
  -3   5   3   51.29   65.89
   2  -5  -3  769.52  118.99
   2  -5  -3  699.43  101.49
   2  -5  -3  566.14  106.59
   2  -5  -3  789.02  108.69
   2  -5  -3  796.72  206.98
   2  -5  -3  645.84   98.29
  -2   5   3  799.72   97.79
  -2   5   3  463.65  125.49
  -2   5   3  577.64  115.99
  -2   5   3  764.12   96.99
   1  -5  -3 1457.95  130.29
   1  -5  -3 1362.86  122.99
   1  -5  -3 1298.77  131.59
   1  -5  -3 1223.38  281.07
   1  -5  -3 1487.05  133.19
  -1   5   3 1567.34  120.19
  -1   5   3 1331.17  171.78
   0  -5  -3  231.28   69.79
   0  -5  -3  162.98   83.29
   0  -5  -3  173.18   67.69
   0  -5  -3  260.67   73.99
   0   5   3  226.08   88.49
   0   5   3  173.98   88.59
   0   5   3  290.27   66.79
  -1  -5  -3   70.29   66.59
  -1  -5  -3   -7.70   63.89
  -1  -5  -3   -2.60   87.29
   1   5   3   62.29   56.89
   1   5   3  160.88   98.39
   1   5   3   52.29   71.39
   1   5   3   29.80   48.40
   1   5   3  199.18   88.29
   1   5   3  111.39   74.39
  -2  -5  -3  568.84  142.39
  -2  -5  -3  256.37   95.19
   2   5   3  337.67  143.19
   2   5   3  337.67  158.18
   2   5   3  423.76  132.09
   2   5   3  327.67  128.59
   2   5   3  352.56  150.78
   2   5   3  344.47  112.09
   4  -6  -3  439.16  179.48
   4  -6  -3  356.06  187.58
   4  -6  -3  617.34  126.79
   4  -6  -3  493.25  119.09
   4  -6  -3  531.45  186.28
   4  -6  -3  385.46  163.58
  -4   6   3  574.64  129.99
  -4   6   3  365.56  147.09
  -4   6   3  520.05  191.48
  -4   6   3  802.32  195.78
  -4   6   3  685.93  195.58
   3  -6  -3  253.07   79.39
   3  -6  -3  374.76  112.49
   3  -6  -3  406.06  115.19
   3  -6  -3  278.07   87.39
   3  -6  -3  283.57  149.79
  -3   6   3  -10.90  202.78
  -3   6   3  285.47   89.39
  -3   6   3   85.49   87.89
  -3   6   3  284.07   83.79
  -3   6   3  235.28  107.19
  -3   6   3  179.28  119.99
   2  -6  -3  -30.50   91.89
   2  -6  -3   53.09   70.29
   2  -6  -3   26.50   58.89
   2  -6  -3   39.30   81.59
  -2   6   3   -5.10   56.69
  -2   6   3   37.00   50.09
  -2   6   3   73.59  108.09
   1  -6  -3  607.84  228.58
   1  -6  -3  496.75  108.59
   1  -6  -3  469.25   95.89
   1  -6  -3  379.76  110.99
  -1   6   3  532.25   93.29
  -1   6   3  366.36  106.69
  -1   6   3  244.38  101.69
  -1   6   3  313.97  136.99
   0  -6  -3 1182.98  180.98
   0   6   3 1440.96  307.57
   0   6   3 1234.18  130.09
   0   6   3  627.24  180.28
  -1  -6  -3  328.67  103.39
  -1  -6  -3  232.58  134.29
   1   6   3  146.69   94.29
   1   6   3  393.56  149.39
   1   6   3  210.18  105.99
   1   6   3  278.97   87.89
   3  -7  -3  184.38  121.39
   3  -7  -3  322.67   99.29
   3  -7  -3  364.46  151.48
   3  -7  -3  146.59  147.29
   3  -7  -3  404.66  109.39
  -3   7   3  192.48  103.69
  -3   7   3   32.40  184.18
  -3   7   3  202.28  144.39
   2  -7  -3  177.28  128.89
   2  -7  -3  -70.89  114.49
   2  -7  -3   21.40   72.09
  -2   7   3   -3.70   31.90
  -2   7   3   59.19   80.09
   1  -7  -3  153.68   89.49
   1  -7  -3  345.67  147.19
  -1   7   3  293.87  146.69
  -1   7   3  128.79   79.49
   0  -7  -3  473.85  108.99
   0  -7  -3  349.67  169.38
   0   7   3  433.56  195.68
   0   7   3  353.96  129.19
   0   7   3  434.86  100.49
   0   7   3  600.44  175.08
  -1   7  -4  158.38  103.49
   1  -7   4  -78.39  224.78
   2   6  -4  241.78  156.18
   1   6  -4  -16.80  119.79
  -1  -6   4  150.18  234.78
   0  -6   4  718.63  190.28
  -1   6  -4  353.96  115.89
  -1   6  -4  266.77   93.29
   1  -6   4  368.36  182.58
  -2   6  -4  128.99   92.79
  -2   6  -4  144.09   75.49
  -2   6  -4  135.59   69.19
   2  -6   4  331.77  178.68
   2  -6   4   62.59   50.09
  -3   6  -4   71.79   84.29
  -3   6  -4   87.49  114.39
   3  -6   4  141.59   70.49
   3  -6   4  259.97  117.39
   3   5  -4  288.07  170.98
   2   5  -4  378.26  149.39
  -2  -5   4  260.87  197.18
  -1  -5   4   32.00  123.39
   0  -5   4    8.20  110.19
  -1   5  -4 1436.56  151.28
  -1   5  -4 1282.27  169.48
   1  -5   4 1195.58  180.28
  -2   5  -4  996.00  141.19
  -2   5  -4 1111.69  127.09
   2  -5   4 1071.99  121.19
   2  -5   4 1090.99  101.19
  -3   5  -4  152.28   73.69
  -3   5  -4  159.38   69.59
  -3   5  -4  167.38   83.09
   3  -5   4  253.17   98.69
   3  -5   4  114.19   73.19
  -4   5  -4   67.69  149.59
  -4   5  -4   29.50   93.09
  -4   5  -4   35.70   88.19
   4  -5   4  136.69  162.98
   4  -5   4  107.49   79.49
   4  -5   4   80.09  160.38
   4  -5   4   34.50   73.99
   3   4  -4  437.86  163.58
  -3  -4   4  292.17  248.78
   2   4  -4  675.83  166.38
  -2  -4   4  587.74  158.58
  -2  -4   4  536.95  102.59
   1   4  -4  393.46  106.09
  -1  -4   4  486.55   87.89
  -1  -4   4  159.98  296.87
  -1  -4   4  423.46  114.79
   0   4  -4   -3.00   43.30
   0  -4   4  -43.00   72.59
  -1   4  -4  740.73  102.19
   1  -4   4  549.15  107.49
   1  -4   4  702.73   84.69
  -2   4  -4 1854.61  116.29
  -2   4  -4 1610.14  158.18
  -2   4  -4 1893.11  162.98
  -2   4  -4 1822.32  187.68
   2  -4   4 1836.12  125.89
   2  -4   4 1742.23  131.79
  -3   4  -4  482.05  104.19
  -3   4  -4  676.43  120.39
  -3   4  -4  726.03  109.89
   3  -4   4  803.12  138.79
   3  -4   4  817.92  100.39
   3  -4   4  974.10  174.88
   3  -4   4  726.63  105.89
   3  -4   4  879.91  226.38
  -4   4  -4  253.77  120.59
  -4   4  -4  285.67  103.09
  -4   4  -4  370.56  100.99
  -4   4  -4  218.18  106.59
   4  -4   4  172.68   93.99
   4  -4   4  284.57   96.09
   4  -4   4  238.08  179.08
   4  -4   4  226.38   86.09
   4  -4   4  170.78  137.09
   4  -4   4  325.37  145.99
   4   3  -4  425.56  188.18
   4   3  -4  220.38  158.78
  -4  -3   4  291.57  159.48
  -4  -3   4  163.58   87.29
   3   3  -4   34.80   49.50
   3   3  -4  185.18  112.69
  -3  -3   4  119.59   53.99
  -3  -3   4   87.29   53.19
   2   3  -4 1140.69  173.28
  -2  -3   4 1275.17  106.29
  -2  -3   4  783.62  151.18
  -2  -3   4 1272.07  118.39
  -1  -3   4 3461.95  241.38
   0  -3   4 1004.40  131.19
   0  -3   4  783.42  187.78
   0  -3   4 1371.16  119.89
   0  -3   4 1136.79   89.79
  -1   3  -4   33.40   57.99
  -1   3  -4  -35.80   29.40
  -1   3  -4    8.30   39.50
  -1   3  -4   13.00   31.70
   1  -3   4   35.90  122.59
   1  -3   4   12.90   14.30
   1  -3   4  -86.79   53.39
   1  -3   4  -10.20   30.50
   1  -3   4    4.90   23.80
  -2   3  -4  356.76   69.99
  -2   3  -4  493.55   68.79
  -2   3  -4  678.83  140.49
  -2   3  -4  608.84  111.39
   2  -3   4  488.45   82.79
   2  -3   4  402.26  104.39
   2  -3   4  493.45   65.99
   2  -3   4  389.96   85.69
   2  -3   4  387.26   69.99
  -3   3  -4 1930.01  149.49
  -3   3  -4 1791.62  161.58
  -3   3  -4 1907.21  200.88
  -3   3  -4 1854.01  165.18
   3  -3   4 1978.00  142.79
   3  -3   4 1918.21  150.58
   3  -3   4 1989.60  165.68
   3  -3   4 2523.35  209.98
  -4   3  -4  331.27  103.69
  -4   3  -4  522.05  163.78
  -4   3  -4  473.05  109.69
  -4   3  -4  199.18  120.89
  -4   3  -4  394.16  117.69
  -4   3  -4  285.57  140.09
   4  -3   4  479.15  165.38
   4  -3   4  614.74  186.18
   4  -3   4  508.75  102.69
   4  -3   4  216.28  138.79
   4  -3   4  775.82  151.88
   4   2  -4  904.71  297.57
   4   2  -4  864.31  129.89
   4   2  -4  751.62  173.98
  -4  -2   4  670.73  119.99
  -4  -2   4  652.03  150.48
  -4  -2   4  768.52  119.39
  -4  -2   4  618.34  125.69
   3   2  -4  426.46  128.39
   3   2  -4  727.33  155.88
  -3  -2   4  416.16   83.69
  -3  -2   4  527.65  120.09
  -3  -2   4  426.66   71.39
  -3  -2   4  416.16   76.39
   2   2  -4  407.46   97.39
  -2  -2   4  310.97   58.39
  -2  -2   4  226.48   54.19
  -2  -2   4  316.27   73.79
   1   2  -4 1069.49  121.59
  -1  -2   4  890.91  137.99
  -1  -2   4  995.10   77.09
  -1  -2   4 1115.39  107.19
   0   2  -4 2830.52  143.29
   0   2  -4 3436.76  153.58
   0  -2   4 3277.37  153.38
   0  -2   4 2945.41  198.08
   0  -2   4 3335.47  154.38
   0  -2   4 3012.60  256.87
   0  -2   4 2580.84  307.87
   0  -2   4 3213.68  197.68
   0  -2   4 3311.97  163.28
  -1   2  -4 2580.64  162.88
  -1   2  -4 2680.33  141.09
  -1   2  -4 2259.37  135.19
   1  -2   4 1997.70  244.98
   1  -2   4 2533.35  137.79
   1  -2   4 2841.22  148.09
   1  -2   4 2751.82  135.59
   1  -2   4 2719.43  214.78
   1  -2   4 2750.32  145.59
   1  -2   4 2421.36  169.38
  -2   2  -4   90.49   37.30
  -2   2  -4   41.10   41.90
  -2   2  -4    3.40   41.80
  -2   2  -4   16.50   42.10
  -2   2  -4   80.49   42.40
   2  -2   4   35.00   52.39
   2  -2   4   14.60   50.09
   2  -2   4   96.79   34.70
   2  -2   4   11.10   36.30
   2  -2   4   52.19   47.70
   2  -2   4   72.19   48.50
  -3   2  -4  439.56  139.69
  -3   2  -4  289.17   79.59
  -3   2  -4  322.77   85.09
  -3   2  -4  336.57   77.89
  -3   2  -4  251.37   70.49
   3  -2   4  390.86   78.49
   3  -2   4  235.68   82.19
   3  -2   4  173.58   68.39
   3  -2   4  375.46  132.19
   3  -2   4  347.37  112.09
  -4   2  -4  571.74  127.69
  -4   2  -4  838.92  213.78
  -4   2  -4  930.21  135.29
  -4   2  -4  749.42  135.69
  -4   2  -4  894.21  164.58
   4  -2   4 1294.87  336.97
   4  -2   4  669.33  125.79
   4  -2   4  817.42  223.18
   4  -2   4  845.02  132.09
   4   1  -4 1257.67  234.38
   4   1  -4  846.92  212.28
   4   1  -4 1166.08  138.09
   4   1  -4 1135.99  160.68
  -4  -1   4  987.00  191.98
  -4  -1   4 1074.89  160.98
  -4  -1   4 1173.18  143.09
  -4  -1   4 1243.28  145.89
   3   1  -4  953.40  181.58
   3   1  -4 1148.09  106.39
   3   1  -4 1038.10  112.89
   3   1  -4 1253.27  155.28
  -3  -1   4 1205.18  105.89
  -3  -1   4 1316.37  107.09
  -3  -1   4 1160.48  115.39
  -3  -1   4 1092.69  139.29
  -3  -1   4 1225.78  110.09
   2   1  -4  413.36   58.49
   2   1  -4  390.36   58.29
   2   1  -4  262.97   95.09
   2   1  -4  441.36  114.79
  -2  -1   4  330.37   61.69
  -2  -1   4  474.95  108.29
  -2  -1   4  345.97   53.99
  -2  -1   4  294.87   51.69
   1   1  -4  145.09   36.90
   1   1  -4  187.68   44.60
   1   1  -4  181.38   40.00
   1   1  -4  219.88   77.59
  -1  -1   4  238.88   75.99
  -1  -1   4  169.58   39.60
   0   1  -4 1308.37   86.49
   0   1  -4 1366.96  101.09
   0   1  -4 1429.46   92.59
   0  -1   4 1326.17   90.79
   0  -1   4 1215.28  138.49
   0  -1   4 1131.69  173.58
   0  -1   4 1187.38  113.39
   0  -1   4 1225.18   92.09
   0  -1   4 1250.67  125.29
  -1   1  -4 2212.88  127.29
  -1   1  -4 1984.50  130.19
  -1   1  -4 1933.51  120.59
  -1   1  -4 1680.73  120.09
   1  -1   4 2021.60  136.19
   1  -1   4 2084.69  175.58
   1  -1   4 2018.50  122.29
   1  -1   4 1925.31  136.19
   1  -1   4 1936.41  115.59
   1  -1   4 2101.49  119.29
   1  -1   4 1791.92  124.89
  -2   1  -4  109.19   55.69
  -2   1  -4   64.39   51.49
  -2   1  -4  180.78   52.19
  -2   1  -4  171.58   57.09
  -2   1  -4  202.98   51.39
  -2   1  -4  196.98   58.39
   2  -1   4  183.48   78.59
   2  -1   4  156.58   56.19
   2  -1   4  142.29   47.80
   2  -1   4  213.48   54.29
   2  -1   4  145.89   46.00
   2  -1   4  119.79   49.50
   2  -1   4  152.38   69.99
   2  -1   4  159.28   60.59
  -3   1  -4  134.49   67.89
  -3   1  -4  126.49   64.09
  -3   1  -4   54.69   44.90
  -3   1  -4   50.59   36.70
   3  -1   4  145.49   73.39
   3  -1   4    8.70   82.29
   3  -1   4   42.20   41.70
   3  -1   4   19.00   43.70
   3  -1   4   58.89   49.50
  -4   1  -4  122.29   92.89
  -4   1  -4  316.67  109.49
  -4   1  -4  243.98  117.89
  -4   1  -4  157.28  128.59
  -4   1  -4  346.47   90.09
   4  -1   4  258.87  134.29
   4  -1   4  209.18  120.89
   4  -1   4  221.98   88.79
   4  -1   4  295.97  165.88
   4  -1   4  415.96  123.69
   5   0  -4  152.18  187.18
   5   0  -4 -148.99  159.78
   5   0  -4  -48.80   92.69
  -5   0   4  -49.10   67.69
  -5   0   4  -74.29  153.08
  -5   0   4  -52.79   88.99
  -5   0   4  -87.09   72.49
   4   0  -4  147.39  135.79
   4   0  -4  564.84  107.29
   4   0  -4  241.08  110.09
   4   0  -4  344.17  135.39
  -4   0   4  322.17   93.99
  -4   0   4  330.27  111.89
  -4   0   4  382.66   88.59
  -4   0   4  254.97  103.19
  -4   0   4  353.56   95.09
  -4   0   4  335.77  107.59
   3   0  -4 2012.20  136.59
   3   0  -4 1676.33  135.59
   3   0  -4 1571.84  201.08
  -3   0   4 1716.93  124.29
  -3   0   4 1979.90  142.89
  -3   0   4 1690.13  130.19
  -3   0   4 1998.40  135.79
  -3   0   4 1923.91  135.39
  -3   0   4 1734.63  182.68
   2   0  -4 2020.20  252.07
   2   0  -4 2464.05  145.49
   2   0  -4 2443.26  138.49
   2   0  -4 2747.43  146.59
   2   0  -4 2447.66  135.99
  -2   0   4 2544.05  140.79
  -2   0   4 2447.66  139.39
  -2   0   4 2459.65  139.49
  -2   0   4 2383.26  201.38
  -2   0   4 2481.35  139.89
  -2   0   4 2603.44  152.08
   1   0  -4  417.76   57.39
   1   0  -4  352.36   61.39
   1   0  -4  433.96   58.79
   1   0  -4  491.85   58.79
   1   0  -4  394.76  104.79
   1   0  -4  371.36   51.09
  -1   0   4  399.36   99.49
  -1   0   4  281.77   53.69
  -1   0   4  394.56   57.69
   0   0  -4 1056.99   80.39
   0   0  -4 1003.50   77.69
   0   0  -4 1055.89   88.09
   0   0  -4 1092.79   84.89
   0   0  -4  879.21   78.39
   0   0   4 1003.80   91.89
   0   0   4 1011.80   82.19
   0   0   4  881.81   88.39
   0   0   4 1129.29   82.89
   0   0   4 1215.18  100.59
   0   0   4  822.32  160.38
   0   0   4  935.21   85.09
  -1   0  -4 1138.79   89.09
  -1   0  -4 1312.37  100.79
  -1   0  -4 1026.40   95.69
   1   0   4 1047.00  107.59
   1   0   4  991.60  125.69
   1   0   4 1148.59  103.49
   1   0   4 1196.98   97.29
   1   0   4 1248.88  170.78
   1   0   4 1210.78   91.39
  -2   0  -4 1690.63  127.59
  -2   0  -4 1569.14  172.48
  -2   0  -4 1731.63  127.19
  -2   0  -4 1366.46  133.19
  -2   0  -4 1649.44  129.59
   2   0   4 1741.13  129.99
   2   0   4 1800.72  142.49
   2   0   4 2120.69  158.98
   2   0   4 1835.32  124.69
   2   0   4 1619.64  144.99
   2   0   4 1759.12  185.18
  -3   0  -4  196.38   71.89
  -3   0  -4  223.68  128.99
  -3   0  -4  187.78   60.29
  -3   0  -4  131.29   79.49
  -3   0  -4  156.88   86.79
   3   0   4  158.18   60.59
   3   0   4  152.78   62.29
   3   0   4  242.38  111.19
   3   0   4  140.39   79.49
  -4   0  -4  250.97  134.19
  -4   0  -4  204.58  108.69
  -4   0  -4   83.99  125.99
  -4   0  -4   78.89   82.99
  -4   0  -4   89.79   74.89
   4   0   4  196.38  117.59
   4   0   4  -23.20  126.69
   4   0   4  122.39   88.09
   4   0   4   94.69   79.19
   5  -1  -4  246.58  105.99
   5  -1  -4  160.58  110.29
   5  -1  -4  263.27  109.99
   5  -1  -4  405.06  154.48
   5  -1  -4  -36.70  149.49
  -5   1   4  176.68  101.69
  -5   1   4  213.08  100.19
  -5   1   4  288.37   95.39
  -5   1   4  241.98   92.79
  -5   1   4  207.98  155.58
   4  -1  -4   45.30   62.09
   4  -1  -4   -5.70   91.19
   4  -1  -4   28.50   49.20
   4  -1  -4  -45.40   55.19
  -4   1   4   43.10   59.49
  -4   1   4  -80.19   99.79
  -4   1   4   44.10   54.49
  -4   1   4    3.50   27.50
  -4   1   4  -10.50   82.99
  -4   1   4  -11.10   49.30
   3  -1  -4  610.24   97.39
   3  -1  -4  988.50   95.99
   3  -1  -4  747.43  144.39
   3  -1  -4  929.91  184.38
   3  -1  -4  999.70  100.09
  -3   1   4  766.72  101.19
  -3   1   4 1019.60   99.99
  -3   1   4  875.81   96.99
  -3   1   4  515.55  134.49
  -3   1   4  875.71  100.59
  -3   1   4  897.51   94.99
   2  -1  -4 1431.76  106.39
   2  -1  -4 1609.14  173.78
   2  -1  -4 1465.05  108.19
   2  -1  -4 1477.45  111.69
   2  -1  -4 1308.87  104.09
   2  -1  -4 1637.14  115.09
  -2   1   4 1542.15  108.09
  -2   1   4 1486.35  104.49
  -2   1   4 1540.25  109.89
  -2   1   4 1199.98  102.99
  -2   1   4 1572.04  109.09
  -2   1   4 1576.14  165.68
  -2   1   4 1388.06  104.29
   1  -1  -4  913.21  176.48
   1  -1  -4 1027.70   85.69
   1  -1  -4  901.91   86.79
   1  -1  -4 1031.70   88.09
   1  -1  -4  875.51   78.49
   1  -1  -4 1003.70   84.09
  -1   1   4 1039.50   88.29
  -1   1   4 1309.37  172.48
  -1   1   4 1064.19   89.19
  -1   1   4 1154.38   84.89
  -1   1   4 1009.90   85.39
  -1   1   4 1070.19   86.69
   0  -1  -4  150.88   44.40
   0  -1  -4  318.37   51.09
   0  -1  -4  240.08   51.39
   0  -1  -4  212.38   50.79
   0  -1  -4  229.58   50.89
   0   1   4  164.48   50.79
   0   1   4  254.97   92.39
   0   1   4  222.28   51.69
   0   1   4  160.38   56.09
   0   1   4  224.78   53.89
  -1  -1  -4  444.66   73.89
  -1  -1  -4  490.55   86.39
  -1  -1  -4  502.65   74.29
   1   1   4  521.25   91.59
   1   1   4  491.95   70.39
   1   1   4  412.96   85.49
   1   1   4  418.06  133.69
   1   1   4  435.36   71.19
   1   1   4  494.65  128.89
  -2  -1  -4 1440.46  125.69
  -2  -1  -4 1312.57  128.39
  -2  -1  -4 1255.57  133.19
  -2  -1  -4 1346.37  118.89
   2   1   4  986.70  164.78
   2   1   4 1578.24  128.99
   2   1   4 1572.74  179.68
   2   1   4  962.10  152.48
   2   1   4 1404.96  119.39
  -3  -1  -4  711.43  168.38
  -3  -1  -4  648.44  122.19
  -3  -1  -4  826.12  112.29
  -3  -1  -4 1026.90  127.69
  -3  -1  -4  768.02  137.79
   3   1   4  968.30  129.19
   3   1   4  762.22  165.18
   3   1   4  807.02  153.28
   3   1   4  854.21  190.18
   3   1   4  748.93  132.69
   3   1   4  979.90  125.09
  -4  -1  -4  158.88  151.58
  -4  -1  -4   41.80   72.59
  -4  -1  -4 -108.59  146.79
  -4  -1  -4  115.99  117.99
   4   1   4   13.50   49.80
   4   1   4  304.07  213.08
   4   1   4  319.67  146.89
   4   1   4  168.38   97.79
   5  -2  -4  550.44  186.98
   5  -2  -4  379.96  165.68
   5  -2  -4  659.23  132.59
   5  -2  -4  545.25  134.29
   5  -2  -4  350.86  171.98
  -5   2   4  462.55  168.58
  -5   2   4  547.65  119.09
  -5   2   4  816.52  134.69
  -5   2   4  747.43  181.98
  -5   2   4  543.75  167.28
  -5   2   4  498.35  125.29
   4  -2  -4  713.83  115.79
   4  -2  -4  468.25  127.09
   4  -2  -4  468.55  102.29
   4  -2  -4  692.43  194.58
  -4   2   4  381.56  132.19
  -4   2   4  440.16   94.89
  -4   2   4  627.64  102.89
  -4   2   4  477.35  104.29
  -4   2   4  520.25  100.89
   3  -2  -4   25.90   59.79
   3  -2  -4   21.10   58.59
   3  -2  -4  108.29   62.79
   3  -2  -4   11.20   28.70
   3  -2  -4   -8.30   39.40
   3  -2  -4   53.29   48.10
  -3   2   4  101.69   55.99
  -3   2   4   85.49   44.20
  -3   2   4    2.40   55.89
  -3   2   4   45.80   41.50
  -3   2   4   57.39   40.50
  -3   2   4  -12.10   40.30
   2  -2  -4  875.41   96.59
   2  -2  -4  935.31   91.69
   2  -2  -4  738.53  164.68
   2  -2  -4  808.12   90.49
   2  -2  -4  960.50   95.69
  -2   2   4  970.30   85.49
  -2   2   4  954.70   90.29
  -2   2   4  882.21  171.68
  -2   2   4  963.10  101.09
  -2   2   4  803.82   91.69
  -2   2   4  853.71   93.09
   1  -2  -4 2428.76  147.09
   1  -2  -4 2277.07  131.59
   1  -2  -4 2068.59  132.59
   1  -2  -4 2018.80  135.49
   1  -2  -4 2413.36  146.39
   1  -2  -4 2067.49  213.78
  -1   2   4 2359.66  140.59
  -1   2   4 2265.37  215.18
  -1   2   4 2381.56  137.09
  -1   2   4 2246.28  148.29
  -1   2   4 2471.95  137.79
  -1   2   4 2230.88  142.89
   0  -2  -4 1009.20   97.19
   0  -2  -4 1169.28  102.19
   0  -2  -4 1101.99  119.29
   0  -2  -4 1078.49   87.39
   0  -2  -4 1153.28  104.49
   0   2   4 1213.98  111.79
   0   2   4 1219.78  221.88
   0   2   4 1303.27  100.49
   0   2   4  961.40  101.69
   0   2   4 1153.48   91.89
  -1  -2  -4   18.80   42.70
  -1  -2  -4    7.70   46.30
   1   2   4  -55.29   51.39
   1   2   4   41.40   53.19
   1   2   4   25.80   66.19
   1   2   4    6.90   45.60
   1   2   4   57.99   43.90
   1   2   4  -58.29   35.70
  -2  -2  -4 1004.30  109.19
  -2  -2  -4  918.01  132.19
  -2  -2  -4  833.52  110.39
   2   2   4  660.13  164.18
   2   2   4  906.71  109.79
   2   2   4  628.04  125.09
   2   2   4  662.13  189.38
   2   2   4  992.40  115.39
  -3  -2  -4  576.24  115.99
  -3  -2  -4  868.51  159.98
  -3  -2  -4  361.66  124.49
  -3  -2  -4  488.25  132.29
   3   2   4  484.45  163.08
   3   2   4  603.64  124.29
   3   2   4  576.54  120.59
   3   2   4  423.86  135.19
   3   2   4   61.79  181.88
  -4  -2  -4  364.66  218.88
  -4  -2  -4  536.95  127.69
  -4  -2  -4  437.16  124.99
  -4  -2  -4  185.98  193.48
   4   2   4   76.69  231.78
   4   2   4  271.47  141.69
   4   2   4  219.98  297.67
   5  -3  -4  627.24  130.19
   5  -3  -4  955.30  350.76
   5  -3  -4  603.44  181.58
   5  -3  -4  448.46  121.09
   5  -3  -4  538.85  211.38
  -5   3   4  440.96  109.39
  -5   3   4  485.05  124.09
  -5   3   4  437.76  150.48
  -5   3   4  494.25  121.39
   4  -3  -4  669.23  194.58
   4  -3  -4  333.57  111.39
   4  -3  -4  544.75  108.09
   4  -3  -4  334.57  110.49
   4  -3  -4  658.83  115.59
  -4   3   4  359.26  110.19
  -4   3   4  431.66   94.49
  -4   3   4  357.26  115.99
  -4   3   4  576.64  116.49
  -4   3   4  388.66  138.99
   3  -3  -4  516.85  153.58
   3  -3  -4  481.65   98.09
   3  -3  -4  577.04   89.59
   3  -3  -4  641.44  114.59
   3  -3  -4  706.83   98.49
  -3   3   4  443.06   97.99
  -3   3   4  484.95  145.29
  -3   3   4  699.13   92.09
  -3   3   4  619.14   93.99
  -3   3   4  635.84  115.49
   2  -3  -4   70.59   44.40
   2  -3  -4   43.10   82.79
   2  -3  -4   43.80   41.10
   2  -3  -4   55.99   47.20
   2  -3  -4   47.50   39.10
   2  -3  -4   69.99   64.29
  -2   3   4   -1.00   51.29
  -2   3   4   58.69   40.10
  -2   3   4  111.89   63.09
  -2   3   4   49.80   35.80
  -2   3   4  -40.30   46.40
   1  -3  -4 1165.98  110.59
   1  -3  -4 1456.65  109.19
   1  -3  -4 1360.06  114.69
   1  -3  -4 1350.06  182.58
   1  -3  -4 1443.96  107.09
   1  -3  -4 1182.68  114.89
  -1   3   4 1206.28  166.88
  -1   3   4 1415.76  107.19
  -1   3   4 1222.98  129.79
  -1   3   4 1150.88  120.29
  -1   3   4 1257.97  109.29
  -1   3   4 1441.26  108.79
   0  -3  -4 1449.85  287.37
   0  -3  -4 1477.85  166.18
   0  -3  -4 1575.84  128.59
   0  -3  -4 1265.87  123.09
   0  -3  -4 1577.44  128.59
   0   3   4 1548.74  122.09
   0   3   4 1500.25  119.69
   0   3   4 1593.64  220.38
   0   3   4 1423.56  140.19
   0   3   4 1195.48  125.19
  -1  -3  -4  673.33  108.49
  -1  -3  -4  856.01  108.29
  -1  -3  -4  609.94  109.29
  -1  -3  -4  685.43  125.09
   1   3   4  589.34  126.09
   1   3   4  657.93  101.89
   1   3   4  531.15  177.68
   1   3   4  934.11  104.09
   1   3   4  670.93  189.08
  -2  -3  -4  -32.10   57.79
  -2  -3  -4  -43.30   77.49
  -2  -3  -4   62.79  148.29
  -2  -3  -4  -30.80   64.19
   2   3   4  -10.50   44.30
   2   3   4    6.60   89.49
   2   3   4   31.20   63.29
   2   3   4   13.60   46.90
   2   3   4  339.27  120.79
  -3  -3  -4  281.47  102.09
  -3  -3  -4   17.60  136.79
  -3  -3  -4  453.15  127.09
  -3  -3  -4  538.65  136.79
   3   3   4  280.37  142.69
   3   3   4  166.88  142.39
   3   3   4  484.75  126.29
   3   3   4  479.95  143.19
   4  -4  -4  438.66  166.28
   4  -4  -4  515.15  121.39
   4  -4  -4  313.17  135.29
   4  -4  -4  774.62  183.78
   4  -4  -4  686.43  143.29
  -4   4   4  343.97  118.09
  -4   4   4  556.84  137.89
  -4   4   4  623.74  125.89
  -4   4   4  288.47  130.59
  -4   4   4  759.92  131.99
   3  -4  -4  368.16   93.79
   3  -4  -4  369.86   82.29
   3  -4  -4  383.36   92.39
   3  -4  -4  424.26  149.29
  -3   4   4  412.86  104.59
  -3   4   4  509.95   97.19
  -3   4   4  365.16   99.29
  -3   4   4  401.46  132.09
  -3   4   4  509.25   95.19
   2  -4  -4  614.94   93.89
   2  -4  -4  619.14  102.99
   2  -4  -4  472.45   83.79
   2  -4  -4  407.76  125.39
   2  -4  -4  372.96   90.39
  -2   4   4  342.67   82.19
  -2   4   4  543.75   92.09
  -2   4   4  327.57   89.39
  -2   4   4  613.74  155.48
  -2   4   4  518.35   81.29
   1  -4  -4  116.89   81.89
   1  -4  -4  221.18   72.79
   1  -4  -4  300.37   71.89
   1  -4  -4  161.68   59.09
   1  -4  -4  201.68   61.69
   1  -4  -4  189.38   60.79
  -1   4   4  134.29   84.49
  -1   4   4  203.18   53.89
  -1   4   4  183.68   59.09
   0  -4  -4  693.13  103.99
   0  -4  -4  711.43  101.29
   0  -4  -4  670.63  101.69
   0  -4  -4  449.76   92.89
   0   4   4  426.96  126.59
   0   4   4  550.94   94.99
   0   4   4  576.64  164.98
   0   4   4  547.85   97.19
  -1  -4  -4 1126.69  231.58
  -1  -4  -4  984.70  151.48
  -1  -4  -4 1092.99  128.29
  -1  -4  -4  959.60  138.89
   1   4   4  852.11  115.89
   1   4   4  927.61  221.48
   1   4   4  706.23  119.59
   1   4   4  766.52  147.79
   1   4   4  787.92  186.68
  -2  -4  -4  170.18  111.39
  -2  -4  -4  539.25  222.98
   2   4   4   53.79   87.79
   2   4   4  138.59   88.19
   2   4   4  302.77  108.69
   2   4   4  260.67  137.19
   2   4   4  216.18  110.69
  -3  -4  -4  299.67  197.68
  -3  -4  -4 -125.69   98.79
  -3  -4  -4  -57.39  159.48
  -3  -4  -4   64.99  101.19
   3   4   4  216.98  117.89
   3   4   4   16.60   69.39
   3   4   4   10.70  129.59
   4  -5  -4  356.66  243.38
   4  -5  -4  344.57  110.29
   4  -5  -4  285.47   94.89
   4  -5  -4  117.89  148.19
   4  -5  -4  -15.30  153.98
  -4   5   4  154.18  179.98
  -4   5   4  140.59  227.48
  -4   5   4  225.58  106.79
  -4   5   4  606.44  170.08
   3  -5  -4 1117.99  140.19
   3  -5  -4 1244.58  188.48
   3  -5  -4  989.80  176.28
   3  -5  -4 1377.96  173.48
   3  -5  -4  921.71  152.38
  -3   5   4  617.74  168.78
  -3   5   4 1221.48  139.59
  -3   5   4 1257.37  186.68
   2  -5  -4  628.44  116.29
   2  -5  -4  712.73  130.89
   2  -5  -4  587.34  107.89
   2  -5  -4  581.94  107.09
  -2   5   4  800.12  107.69
  -2   5   4  599.14  112.79
  -2   5   4  367.66  123.79
  -2   5   4  458.35  137.79
   1  -5  -4  245.68   94.99
   1  -5  -4  103.29  121.99
   1  -5  -4  283.87   82.19
   1  -5  -4  247.68   82.79
  -1   5   4  240.18  114.09
  -1   5   4  207.28   96.19
  -1   5   4  240.48   71.79
  -1   5   4  155.08   64.09
   0  -5  -4  500.45  102.99
   0  -5  -4  440.76   97.29
   0  -5  -4  350.56   91.09
   0   5   4  484.95  149.29
   0   5   4  207.18  122.59
   0   5   4  330.77  201.68
   0   5   4  370.06   83.09
  -1  -5  -4  644.74  151.48
  -1  -5  -4  688.83  126.69
  -1  -5  -4  455.65  115.69
  -1  -5  -4  645.74  140.69
   1   5   4  686.93  115.79
   1   5   4  525.55  150.28
   1   5   4  276.67  119.39
   1   5   4  705.13  276.57
  -2  -5  -4  322.47  113.59
  -2  -5  -4   96.39  181.98
  -2  -5  -4   28.70  155.68
  -2  -5  -4  331.27  126.99
   2   5   4  244.38  127.79
   2   5   4  287.67  110.49
   2   5   4   38.00  101.29
   2   5   4  537.35  177.78
   3  -6  -4   60.49   76.59
   3  -6  -4  206.18   90.29
   3  -6  -4  113.39   99.19
   3  -6  -4  172.68  135.49
   3  -6  -4   35.80  206.48
  -3   6   4  200.48   98.99
  -3   6   4  128.89   89.09
  -3   6   4  248.38  150.28
  -3   6   4   22.90   45.40
  -3   6   4  150.48  328.17
   2  -6  -4  966.50  154.68
   2  -6  -4  833.62  241.58
   2  -6  -4 1039.00  153.78
   2  -6  -4 1111.79  194.78
   2  -6  -4  979.40  140.09
  -2   6   4  857.91  135.49
  -2   6   4  469.35  150.18
   1  -6  -4  336.37  163.68
   1  -6  -4  394.46  104.79
   1  -6  -4  241.88  149.88
   1  -6  -4  329.57  102.49
   1  -6  -4  193.18  226.38
  -1   6   4  255.87  114.09
  -1   6   4  371.36  137.39
   0  -6  -4  -18.10  134.49
   0  -6  -4  115.19  112.69
   0  -6  -4  172.68   98.59
   0  -6  -4  152.68   85.69
   0   6   4  172.38   82.39
   0   6   4  133.59  100.09
   0   6   4  175.08  145.19
   0   6   4   93.29   92.29
  -1  -6  -4  132.09  149.79
  -1  -6  -4 -146.69  199.28
  -1  -6  -4   45.50   93.89
  -1  -6  -4  200.18  100.09
   1   6   4   71.79   76.59
   1   6   4   75.29  107.49
   1   6   4  -13.90  194.78
   1   6   4   74.39   93.09
   2  -7  -4  117.49  102.29
   2  -7  -4  258.97  145.39
   2  -7  -4  246.68  100.99
   2  -7  -4   62.59  167.18
   2  -7  -4  143.59  136.29
  -2   7   4  122.59  240.78
  -2   7   4   39.80   64.19
  -2   7   4  157.68   96.99
   1  -7  -4  266.57  122.79
   1  -7  -4  100.99   97.09
   1  -7  -4  211.08  184.68
  -1   7   4  -31.20  195.98
  -1   7   4  336.27  103.69
  -1   7   4  152.28  113.99
  -1  -6   5  818.92  336.87
   0  -6   5  369.76  346.57
  -1   6  -5  -77.19   69.09
  -1   6  -5   29.00   72.99
  -2   6  -5  354.76  116.69
   2  -6   5  197.68   82.99
  -3   6  -5  175.58  110.29
  -3   6  -5  466.85  143.49
   3  -6   5  332.57   93.99
   3  -6   5  482.85  149.79
   3  -6   5  229.78  107.79
   2   5  -5  156.58  141.79
  -2  -5   5  192.28  518.85
  -1  -5   5  308.67  177.78
   0  -5   5  832.92  206.78
  -1   5  -5  277.87   97.99
  -1   5  -5  211.98   86.89
   1  -5   5  400.76   91.39
  -2   5  -5   44.20   65.39
   2  -5   5 -159.78  138.09
   2  -5   5    0.00   24.00
   2  -5   5    9.90   74.19
   2  -5   5   -8.60   49.10
  -3   5  -5  246.78  104.59
  -3   5  -5  326.97  103.89
  -3   5  -5  240.28  125.69
  -3   5  -5  247.18   90.39
   3  -5   5  174.48  125.29
   3  -5   5   66.79   82.09
   3  -5   5  421.46   99.39
   3   4  -5  368.46  204.38
  -3  -4   5  477.15  363.76
  -2  -4   5   26.30   73.99
  -2  -4   5 -386.86  289.17
  -1  -4   5  292.37  146.69
  -1  -4   5  244.58   72.69
   0  -4   5  323.57  124.49
  -1   4  -5  542.05  116.69
   1  -4   5  668.23  156.88
   1  -4   5  622.84  141.69
   1  -4   5  618.64   94.59
  -2   4  -5  441.16  127.69
  -2   4  -5  339.87   93.59
  -2   4  -5  425.26   78.59
   2  -4   5  334.87   89.29
   2  -4   5  320.07  115.89
   2  -4   5  319.17   68.79
   2  -4   5  335.17   87.99
   2  -4   5  446.46  112.29
  -3   4  -5  -93.09  100.19
  -3   4  -5    3.90   38.60
  -3   4  -5    6.10   62.29
  -3   4  -5   72.79   68.59
   3  -4   5 -199.48  111.59
   3  -4   5  168.38  125.89
   3  -4   5   -9.60   22.40
   3  -4   5  -22.90   98.29
   3  -4   5   84.79   62.59
  -4   4  -5   15.40  105.19
  -4   4  -5  502.15  208.58
  -4   4  -5  191.88  118.99
  -4   4  -5  301.87  108.39
   4  -4   5  246.58  233.18
   4  -4   5  469.15  183.08
   4  -4   5  222.68   97.59
   4  -4   5  276.37   99.99
   3   3  -5  739.83  205.78
   3   3  -5  555.94  158.68
  -3  -3   5  782.62  137.09
  -3  -3   5  360.36  236.48
  -3  -3   5  829.42  179.58
   2   3  -5  436.86  112.79
  -2  -3   5  441.86  146.49
  -2  -3   5  409.36   79.49
  -2  -3   5  599.54  105.39
  -1  -3   5  131.19  131.49
  -1  -3   5  107.89   35.30
  -1  -3   5  171.68   50.89
   0  -3   5  192.38   61.89
   0  -3   5  264.77   88.99
   0  -3   5  195.38   54.39
  -1   3  -5 1378.36  135.09
  -1   3  -5 1105.19  101.79
   1  -3   5 1417.66  114.19
   1  -3   5 1172.48  160.68
   1  -3   5 1297.47  103.49
   1  -3   5 1302.57  240.48
   1  -3   5 1507.85  115.69
  -2   3  -5  562.94  103.49
  -2   3  -5  535.55   90.89
  -2   3  -5  636.44  144.89
   2  -3   5  502.95   95.39
   2  -3   5  464.65  100.09
   2  -3   5  647.44   87.39
   2  -3   5  633.64  120.49
  -3   3  -5   74.49   62.99
  -3   3  -5    7.60   45.30
  -3   3  -5   55.59   75.29
  -3   3  -5   89.79   82.19
  -3   3  -5  118.89   61.09
   3  -3   5  -46.40  100.09
   3  -3   5  215.18  101.49
   3  -3   5  103.89   62.19
   3  -3   5  145.39  141.89
   3  -3   5   30.30   47.20
  -4   3  -5   60.49   80.39
  -4   3  -5   86.59   87.99
  -4   3  -5   30.60   50.19
  -4   3  -5   74.49  122.89
  -4   3  -5  146.09  159.88
   4  -3   5  122.79   84.99
   4  -3   5  246.78  205.68
   4  -3   5   44.50   65.09
   4  -3   5   93.79   85.89
   4  -3   5 -132.49  461.85
   4  -3   5  355.76  177.38
   4   2  -5  165.28  155.88
   4   2  -5   90.29   85.39
   4   2  -5   12.40   52.59
  -4  -2   5    7.00   65.09
  -4  -2   5   -1.90   76.19
  -4  -2   5 -167.48  102.09
  -4  -2   5    3.50   38.00
   3   2  -5   86.09   69.09
  -3  -2   5  128.49   70.69
  -3  -2   5  141.09   56.19
   2   2  -5 1135.29  141.59
  -2  -2   5 1243.68  132.59
  -2  -2   5 1047.10   98.89
  -2  -2   5 1208.98  124.59
  -2  -2   5 1079.49   95.39
  -2  -2   5  787.92  150.38
  -1  -2   5  631.14  120.99
  -1  -2   5  470.65   75.19
  -1  -2   5  458.25   64.59
  -1  -2   5  345.27  106.69
   0   2  -5  -16.20   36.40
   0   2  -5   39.10   36.00
   0  -2   5    8.10   68.99
   0  -2   5  -10.40   28.10
   0  -2   5  -31.10   28.00
   0  -2   5   12.60   36.50
   0  -2   5    3.70   19.00
   0  -2   5   19.20   47.50
  -1   2  -5  555.04   86.79
  -1   2  -5  433.86   79.69
   1  -2   5  385.56   93.39
   1  -2   5  368.16   87.09
   1  -2   5  546.25  162.58
   1  -2   5  419.56   68.29
   1  -2   5 -172.68  315.27
   1  -2   5  336.97   70.49
   1  -2   5  379.26   71.99
   1  -2   5  342.77   98.49
  -2   2  -5 1089.49  144.09
  -2   2  -5 1083.69  121.19
   2  -2   5 1093.69  108.49
   2  -2   5  704.33  123.69
   2  -2   5  938.01  102.29
   2  -2   5  746.83  157.58
   2  -2   5  876.51  129.09
   2  -2   5 1039.40  103.09
  -3   2  -5  587.64  107.29
  -3   2  -5  528.65  117.39
  -3   2  -5  937.51  134.99
  -3   2  -5  817.52  121.49
  -3   2  -5  826.32  184.38
   3  -2   5  885.31  172.48
   3  -2   5  332.17  201.48
   3  -2   5 1075.99  120.49
   3  -2   5  808.72  119.09
   3  -2   5  643.94  151.78
  -4   2  -5   15.10  112.99
  -4   2  -5  187.28  143.19
  -4   2  -5   27.30   76.79
  -4   2  -5   22.90   51.39
  -4   2  -5  -63.19   80.19
   4  -2   5   81.69   81.39
   4  -2   5  106.79  215.68
   4  -2   5  137.49  161.78
   4  -2   5   98.19   95.39
   4  -2   5 -198.18  149.69
   4  -2   5  116.69   86.29
   4   1  -5  141.59  106.39
   4   1  -5  195.18   83.39
   4   1  -5  198.58  168.38
   4   1  -5  317.77  158.68
  -4  -1   5  243.78   80.89
  -4  -1   5  148.29   98.69
  -4  -1   5  198.18  108.59
  -4  -1   5  130.69   95.79
  -4  -1   5  166.18   85.99
   3   1  -5  135.69   57.69
   3   1  -5   63.19   62.49
  -3  -1   5  145.69   68.99
  -3  -1   5  156.38   57.19
  -3  -1   5  111.29   63.99
  -3  -1   5  157.78   75.59
   2   1  -5  903.51   97.69
   2   1  -5 1064.29  143.39
   2   1  -5 1169.08   95.69
  -2  -1   5 1074.99   92.89
  -2  -1   5  952.30  108.99
  -2  -1   5 1165.98   98.89
  -2  -1   5 1061.69  136.09
   1   1  -5 1839.22  118.59
   1   1  -5 1721.53  127.99
   1   1  -5 1644.64  116.59
   1   1  -5 1619.94  183.68
  -1  -1   5 2048.50  189.98
  -1  -1   5 1679.03  112.69
  -1  -1   5 1559.94  159.18
   0   1  -5  343.57   66.59
   0   1  -5  228.18   55.79
   0  -1   5  289.37  159.38
   0  -1   5  274.87   62.49
   0  -1   5  370.76  117.29
   0  -1   5  370.76   60.29
   0  -1   5  400.96  108.89
   0  -1   5  275.97   60.29
   0  -1   5  319.87   59.29
   0  -1   5  203.08   60.99
  -1   1  -5   14.60   37.00
  -1   1  -5  -17.40   38.30
  -1   1  -5  -22.00   40.40
  -1   1  -5    2.50   47.80
   1  -1   5   64.69   37.20
   1  -1   5   -7.30   27.80
   1  -1   5  -16.40   13.10
   1  -1   5   24.30   53.79
   1  -1   5   46.60   47.50
   1  -1   5  -23.30   32.30
   1  -1   5  -41.20   30.10
   1  -1   5   91.89   91.09
  -2   1  -5  589.54   93.19
  -2   1  -5  659.33  103.49
  -2   1  -5  407.96   87.49
  -2   1  -5  525.05   88.29
   2  -1   5  659.03   84.29
   2  -1   5  440.26  107.99
   2  -1   5  597.04   89.09
   2  -1   5  550.44   80.19
   2  -1   5  396.76   91.39
   2  -1   5  688.93  159.38
  -3   1  -5  636.14  166.08
  -3   1  -5  974.50  132.49
  -3   1  -5  687.33  118.99
  -3   1  -5  816.32  118.49
  -3   1  -5  862.01  152.28
   3  -1   5  937.61  169.98
   3  -1   5  853.51  202.48
   3  -1   5  812.02  118.69
   3  -1   5  858.51  122.69
   3  -1   5  915.11  170.78
  -4   1  -5  170.08  116.39
  -4   1  -5  163.78   92.99
  -4   1  -5  164.18  119.19
  -4   1  -5  202.28  152.88
  -4   1  -5 -222.58  156.48
   4  -1   5  181.58  109.29
   4  -1   5  344.67  106.69
   4  -1   5    7.20   57.99
   4  -1   5  299.47  170.28
   4  -1   5  633.44  188.68
   4   0  -5  536.55  128.59
   4   0  -5  573.84  185.08
  -4   0   5  769.92  181.18
  -4   0   5  741.93  134.49
  -4   0   5  618.54  117.89
  -4   0   5  669.93  140.19
  -4   0   5  815.02  132.69
   3   0  -5  156.68  125.09
   3   0  -5  215.08   68.69
  -3   0   5  279.27   69.79
  -3   0   5  254.07   60.79
  -3   0   5  315.07   74.29
  -3   0   5  265.77   98.89
  -3   0   5  224.98   73.59
   2   0  -5  205.48   62.09
   2   0  -5  101.99   57.39
   2   0  -5  179.38   59.19
   2   0  -5  109.49   70.59
  -2   0   5  234.08   97.89
  -2   0   5  178.78   60.29
  -2   0   5  213.38   53.29
  -2   0   5  248.08   57.29
  -2   0   5   81.19   47.90
  -2   0   5  174.88   55.09
  -2   0   5  151.98   48.20
   1   0  -5  881.61   89.29
   1   0  -5  702.13   92.59
   1   0  -5  767.32   82.89
   1   0  -5  755.72  165.68
   1   0  -5  714.23   86.59
   1   0  -5  776.92   89.49
  -1   0   5  853.41   84.19
  -1   0   5  817.92   88.39
  -1   0   5  671.33   92.39
  -1   0   5  764.42   82.19
  -1   0   5  825.92  172.28
   0   0  -5 3765.62  200.28
   0   0  -5 4450.95  216.08
   0   0  -5 4181.28  212.18
   0   0  -5 4299.77  217.38
   0   0  -5 3934.01  209.58
   0   0   5 4233.08  215.78
   0   0   5 4475.75  212.18
   0   0   5 4107.99  212.58
   0   0   5 4556.04  223.18
   0   0   5 3455.55  217.68
   0   0   5 4470.35  213.98
   0   0   5 4073.79  318.47
  -1   0  -5  494.55   83.69
  -1   0  -5  491.55   87.19
  -1   0  -5  596.44   98.79
   1   0   5  563.34   79.89
   1   0   5  504.45   73.09
   1   0   5  452.25   85.29
   1   0   5  521.25  164.88
   1   0   5  420.36  119.29
   1   0   5  567.44   98.99
  -2   0  -5  -33.60   54.49
  -2   0  -5  -61.49   46.30
  -2   0  -5  -75.09   62.99
   2   0   5   -8.80   43.50
   2   0   5  -41.20   84.99
   2   0   5  -38.30   45.10
   2   0   5  121.99   74.29
  -3   0  -5  286.77  103.59
  -3   0  -5  422.26  100.19
  -3   0  -5  253.87   96.69
   3   0   5  520.15  155.08
   3   0   5  307.67  123.99
   3   0   5  398.86   97.39
  -4   0  -5  307.77  190.38
  -4   0  -5  429.86  128.99
  -4   0  -5  336.77  179.08
  -4   0  -5  526.55  130.99
  -4   0  -5  305.07  151.88
   4   0   5  418.76  125.99
   4   0   5  381.56  186.68
   4   0   5  408.06  183.08
   4   0   5  502.45  135.79
   4   0   5  437.46  180.88
   4   0   5 -164.68  250.97
   4  -1  -5  324.77  111.39
   4  -1  -5  439.16  118.69
   4  -1  -5  421.06   96.49
   4  -1  -5  398.96   99.49
   4  -1  -5  678.13  277.07
  -4   1   5  397.36  118.39
  -4   1   5  420.56  100.29
  -4   1   5  272.67  131.89
  -4   1   5  267.87  129.49
  -4   1   5  386.16   96.99
   3  -1  -5  772.02  203.08
   3  -1  -5  793.12  106.69
   3  -1  -5  766.22  107.99
   3  -1  -5  652.63  123.39
  -3   1   5  689.93   98.39
  -3   1   5  564.74  109.79
  -3   1   5  793.12  100.09
  -3   1   5  730.33  120.69
  -3   1   5  693.33  181.78
  -3   1   5  801.02  107.99
  -3   1   5  678.03   95.99
   2  -1  -5  566.94   89.49
   2  -1  -5  341.37   72.09
   2  -1  -5  384.06   81.19
   2  -1  -5  411.26   75.99
   2  -1  -5  317.57  107.89
  -2   1   5  375.36   68.99
  -2   1   5  411.66   74.29
  -2   1   5  404.16  139.29
  -2   1   5  347.67   69.79
  -2   1   5  411.56   76.59
  -2   1   5  551.64   77.79
   1  -1  -5   25.10   47.90
   1  -1  -5   31.70   45.40
   1  -1  -5  103.39   72.89
   1  -1  -5   42.50   41.60
   1  -1  -5  110.09   45.80
  -1   1   5  114.89   42.30
  -1   1   5  149.69   46.60
  -1   1   5  108.09   57.19
  -1   1   5   75.59   47.90
  -1   1   5  105.29   64.79
  -1   1   5  123.19   44.90
   0  -1  -5  400.96   76.99
   0  -1  -5  575.84   85.09
   0  -1  -5  470.75   77.19
   0  -1  -5  410.16   80.99
   0  -1  -5  557.34   79.69
   0   1   5  419.76  127.99
   0   1   5  507.75   77.99
   0   1   5  499.05   79.59
   0   1   5  639.24   89.19
   0   1   5  551.84   95.89
  -1  -1  -5  774.12  110.29
  -1  -1  -5  667.83  105.49
  -1  -1  -5 1056.79  122.89
   1   1   5 1111.69  104.99
   1   1   5  887.31  210.18
   1   1   5  913.91  191.08
   1   1   5  848.32  136.49
   1   1   5  962.90  108.19
   1   1   5  916.91  124.29
  -2  -1  -5  125.99   69.99
  -2  -1  -5  101.89   81.89
  -2  -1  -5  275.47   84.39
  -2  -1  -5  245.58   71.09
   2   1   5  116.39   60.59
   2   1   5   -8.90  117.89
   2   1   5  130.79  149.39
   2   1   5   74.69   62.99
   2   1   5  290.57   95.39
   2   1   5  163.78   66.09
  -3  -1  -5  180.88  146.99
  -3  -1  -5  -28.10   75.99
  -3  -1  -5   43.80  109.29
   3   1   5  115.69   81.19
   3   1   5   39.10   70.39
   3   1   5  123.99  160.68
   3   1   5   12.10  118.29
   4  -2  -5  379.06   92.99
   4  -2  -5  417.26  126.99
   4  -2  -5  511.45  123.49
   4  -2  -5  477.95  120.99
   4  -2  -5  265.17  127.49
  -4   2   5  353.96   88.19
  -4   2   5  284.87   86.09
  -4   2   5  133.39   81.59
  -4   2   5  502.15  123.09
   3  -2  -5  942.21  226.18
   3  -2  -5  986.60  117.89
   3  -2  -5  875.71  120.69
   3  -2  -5  886.51  137.39
  -3   2   5  797.32  136.29
  -3   2   5 1030.70  126.29
  -3   2   5  992.10  111.09
  -3   2   5  561.74  139.69
  -3   2   5  996.90  114.69
  -3   2   5  907.21  137.99
  -3   2   5  860.21  111.69
   2  -2  -5  703.43  107.59
   2  -2  -5 1080.29  113.99
   2  -2  -5  923.21  106.99
   2  -2  -5  728.63  176.48
   2  -2  -5  807.82  114.19
  -2   2   5  979.00  100.59
  -2   2   5  672.73  102.39
  -2   2   5  891.81   99.49
  -2   2   5 1050.49  107.59
  -2   2   5  710.33  165.28
   1  -2  -5   98.29   70.79
   1  -2  -5  115.99   50.89
   1  -2  -5  125.69   47.30
   1  -2  -5   13.90   53.19
   1  -2  -5   66.49   45.50
   1  -2  -5   61.69   42.10
  -1   2   5  107.29   46.20
  -1   2   5  110.79   43.70
  -1   2   5   88.79   44.40
  -1   2   5  108.49   77.99
  -1   2   5  189.88   64.99
   0  -2  -5  259.67   65.59
   0  -2  -5  173.38   56.59
   0  -2  -5  237.98   59.79
   0  -2  -5  137.89   60.99
   0  -2  -5  319.87   70.59
   0   2   5  274.07  116.59
   0   2   5  221.38   75.89
   0   2   5  350.36   73.49
   0   2   5  185.58   67.69
   0   2   5  242.88   57.19
  -1  -2  -5  552.34  100.39
  -1  -2  -5  389.66   92.39
  -1  -2  -5  590.04  110.29
   1   2   5  436.26  102.29
   1   2   5  339.77  147.69
   1   2   5  849.61  155.38
   1   2   5  327.07  112.39
   1   2   5  947.71  198.58
   1   2   5  483.05   93.09
  -2  -2  -5  403.36  118.89
  -2  -2  -5  212.08  100.69
  -2  -2  -5  464.85  105.59
   2   2   5  529.95  112.79
   2   2   5  653.23  118.29
   2   2   5  283.07  126.49
   2   2   5  521.05  159.58
   2   2   5  399.76  124.39
   2   2   5  525.45  142.39
  -3  -2  -5   16.20  142.59
  -3  -2  -5   79.59  126.19
  -3  -2  -5   13.70   70.89
  -3  -2  -5  -79.89   86.89
   3   2   5 -266.27  194.88
   3   2   5   77.39   96.19
   3   2   5  -55.69   88.49
   3   2   5   41.60  120.39
   3   2   5   -5.50   45.40
   4  -3  -5  258.07  116.89
   4  -3  -5  -36.10  117.19
   4  -3  -5  120.09   83.69
   4  -3  -5  104.29  121.29
   4  -3  -5   42.50   75.99
   4  -3  -5  200.28  124.09
  -4   3   5  -55.59   64.29
  -4   3   5  268.77  126.09
  -4   3   5   38.50   95.39
  -4   3   5   58.09   81.59
  -4   3   5  -82.39   60.59
   3  -3  -5  550.54   99.29
   3  -3  -5  415.66   93.29
   3  -3  -5  482.25  160.18
   3  -3  -5  477.15  106.49
   3  -3  -5  340.67   92.99
   3  -3  -5  420.46  105.19
  -3   3   5  521.25   99.19
  -3   3   5  299.27  124.29
  -3   3   5  368.06   84.29
  -3   3   5  284.87   92.09
   2  -3  -5  524.35  103.79
   2  -3  -5  727.23  108.99
   2  -3  -5  566.84  104.79
   2  -3  -5  343.67  127.89
   2  -3  -5  628.94  105.09
  -2   3   5  360.86  101.59
  -2   3   5  483.15  101.09
  -2   3   5  617.74   99.19
  -2   3   5  716.93   95.39
  -2   3   5  564.64   96.69
  -2   3   5  805.72  123.99
   1  -3  -5  511.25   94.79
   1  -3  -5  683.03  105.19
   1  -3  -5  477.55  113.49
   1  -3  -5  689.93  100.79
   1  -3  -5  410.06  158.28
   1  -3  -5  523.85   97.29
  -1   3   5  578.24  157.58
  -1   3   5  697.63   96.39
   0  -3  -5   15.90   47.00
   0  -3  -5  -34.90   54.09
   0  -3  -5   50.19   58.39
   0   3   5   -1.90   30.30
   0   3   5   55.29   70.29
   0   3   5  -71.09   47.60
   0   3   5  -68.49   42.50
  -1  -3  -5  353.36  103.09
  -1  -3  -5  508.95  104.99
  -1  -3  -5  442.66  107.89
  -1  -3  -5  888.11  137.79
   1   3   5  584.04  127.29
   1   3   5  622.04  113.19
   1   3   5  722.53  211.28
   1   3   5  649.74  179.18
   1   3   5  687.53  114.19
   1   3   5  321.47  112.79
  -2  -3  -5  815.62  152.88
   2   3   5  628.94  124.59
   2   3   5  575.44  205.68
   2   3   5  702.73  137.49
   2   3   5  439.86  156.88
   2   3   5  325.87  186.38
   2   3   5  351.96  153.48
  -3  -3  -5  411.06  133.19
  -3  -3  -5  410.16  139.39
  -3  -3  -5  189.58  177.38
   3   3   5  285.27  171.28
   3   3   5  487.95  138.89
   3   3   5  568.04  286.57
   3   3   5  393.96  149.79
   3   3   5  318.87  170.58
   4  -4  -5   23.80   72.69
   4  -4  -5   60.09   96.59
   4  -4  -5   39.90  164.58
   4  -4  -5  129.99   88.89
  -4   4   5   -8.80  274.47
  -4   4   5   20.30   51.89
  -4   4   5    5.40   77.09
  -4   4   5  100.89  163.88
  -4   4   5   32.20   93.49
   3  -4  -5 -165.88  156.48
   3  -4  -5 -148.99   98.79
   3  -4  -5   87.99   62.99
   3  -4  -5   77.79   63.79
   3  -4  -5    0.80   35.20
   3  -4  -5  -54.69   97.79
  -3   4   5  -26.50   58.69
  -3   4   5  -11.50   24.90
  -3   4   5  139.29   99.99
  -3   4   5  106.89   70.99
  -3   4   5  -82.89  108.89
   2  -4  -5  299.87   96.99
   2  -4  -5  388.66  158.28
   2  -4  -5  344.97   96.59
   2  -4  -5  357.86   98.89
   2  -4  -5  495.55  101.29
   2  -4  -5  345.27   91.49
  -2   4   5  307.27  115.09
  -2   4   5  300.57  101.19
  -2   4   5  608.14  125.89
  -2   4   5  252.67   80.99
   1  -4  -5  417.06  101.69
   1  -4  -5  139.59   93.39
   1  -4  -5  524.05  105.69
   1  -4  -5  287.87   99.09
  -1   4   5  410.36  110.79
  -1   4   5  578.24  125.09
  -1   4   5  339.27  127.09
  -1   4   5  482.15   91.39
  -1   4   5  648.34  107.39
   0  -4  -5  178.78   86.19
   0  -4  -5  262.87   83.29
   0  -4  -5  156.48   86.69
   0  -4  -5  233.28   80.19
   0   4   5  292.77   78.79
   0   4   5  291.57   80.89
   0   4   5  234.28  118.59
   0   4   5  -32.50  109.19
   0   4   5   33.00  100.29
  -1  -4  -5  173.08  108.79
  -1  -4  -5  152.88   73.29
  -1  -4  -5  184.18   99.89
  -1  -4  -5  226.68   88.79
   1   4   5   71.69  126.39
   1   4   5  302.37  163.28
   1   4   5   83.59   72.19
   1   4   5  195.78   99.39
   1   4   5   77.89  124.59
  -2  -4  -5  356.66  154.08
  -2  -4  -5   62.29  107.49
  -2  -4  -5  321.67  105.19
  -2  -4  -5  226.58  159.58
   2   4   5  297.77  107.49
   2   4   5  680.93  241.78
   2   4   5  208.68  116.49
   2   4   5   42.10  181.78
   2   4   5  121.29   95.79
   4  -5  -5  167.38  200.68
   4  -5  -5  175.38  150.18
   4  -5  -5  199.98  189.18
   4  -5  -5  176.08  106.99
   4  -5  -5  346.47  126.39
  -4   5   5 -184.88  329.17
  -4   5   5  705.83  278.77
  -4   5   5  299.67  109.09
  -4   5   5  158.08   97.09
  -4   5   5  361.06  127.19
   3  -5  -5  122.29   85.29
   3  -5  -5  136.29  126.99
   3  -5  -5  -38.10  234.98
   3  -5  -5    2.20   72.89
   3  -5  -5    1.00   45.00
  -3   5   5   26.00  143.09
  -3   5   5  -10.40   84.29
  -3   5   5   98.69   79.89
  -3   5   5   82.99   78.49
   2  -5  -5   32.40   74.09
   2  -5  -5  121.69  107.59
   2  -5  -5  174.08   85.89
   2  -5  -5  349.57  104.09
   2  -5  -5  -37.00  107.89
   2  -5  -5   17.30   61.19
  -2   5   5  111.59   69.69
  -2   5   5   88.69   80.39
  -2   5   5  141.29  107.29
  -2   5   5  308.37  126.59
   1  -5  -5  597.04  115.99
   1  -5  -5  597.64  117.69
   1  -5  -5  456.55  126.09
   1  -5  -5  707.63  132.59
  -1   5   5  627.24  116.19
  -1   5   5  556.84  245.18
  -1   5   5  802.42  150.38
  -1   5   5  498.15  110.79
  -1   5   5  424.46  139.29
   0  -5  -5  492.25  116.59
   0  -5  -5  381.66  109.79
   0  -5  -5  224.28  135.99
   0   5   5  314.47  137.99
   0   5   5  408.06  133.09
   0   5   5  315.07  140.69
   0   5   5  289.47   92.99
   0   5   5  552.94  266.67
   0   5   5  410.16  182.18
  -1  -5  -5 -176.38  158.88
  -1  -5  -5  278.87   92.39
  -1  -5  -5  287.07  107.69
  -1  -5  -5  149.88  143.49
   1   5   5   16.00  224.28
   1   5   5  284.67  101.39
   1   5   5   82.69  101.49
   1   5   5  186.78  138.49
   1   5   5   90.19   99.69
   1   5   5  186.58  192.58
   3  -6  -5  139.79  108.99
   3  -6  -5  -59.29  166.88
   3  -6  -5  352.86  118.39
   3  -6  -5  164.88  184.48
   3  -6  -5  216.98   99.99
  -3   6   5  127.89  239.88
  -3   6   5   52.59   72.59
  -3   6   5  201.48  119.49
  -3   6   5  251.07  119.19
   2  -6  -5  144.49  131.49
   2  -6  -5   -9.00   90.29
   2  -6  -5    0.80   75.19
   2  -6  -5  233.18  171.88
   2  -6  -5   63.89   86.69
  -2   6   5  103.49  105.59
  -2   6   5   67.39   90.89
  -2   6   5   21.30   50.39
   1  -6  -5  196.88   88.49
   1  -6  -5  121.39   97.49
   1  -6  -5  -76.69  129.89
  -1   6   5    8.60   47.30
  -1   6   5  195.18  166.08
  -1   6   5  130.89   85.69
  -1   6   5  228.58  197.18
   0  -6  -5  469.15  171.68
   0  -6  -5  318.77  226.98
   0  -6  -5  472.85  140.59
   0  -6  -5  433.06  127.29
   0   6   5  610.44  130.99
   0   6   5  267.87  128.19
   0   6   5  456.75  224.28
   0   6   5  511.15  244.38
  -2   6  -6  260.77  114.49
   2  -6   6  254.17  121.59
   2  -6   6  421.46  115.09
   2  -6   6  324.87  106.29
  -1  -5   6  156.08  105.89
   0  -5   6  -16.10   74.49
   1  -5   6  224.78   70.39
   1  -5   6  214.18   80.99
  -2   5  -6  433.26  129.09
   2  -5   6  516.75   93.49
   2  -5   6  228.18  112.19
   2  -5   6  381.76  107.29
   2  -5   6  511.45  119.89
  -3   5  -6  460.25  116.59
  -3   5  -6  105.59  163.18
  -3   5  -6  344.67  128.89
   3  -5   6  379.96  115.39
   3  -5   6  300.27   99.59
   3  -5   6  368.76  164.78
   3  -5   6  182.68   99.89
  -2  -4   6 -498.55  259.67
  -1  -4   6  331.37  209.78
   0  -4   6  169.08   71.59
   0  -4   6   12.00  259.97
   0  -4   6  383.16  138.49
  -1   4  -6   44.10   67.89
   1  -4   6 -192.18  148.89
   1  -4   6  -28.40   53.19
   1  -4   6    2.00   23.90
   1  -4   6   92.29   72.49
   1  -4   6  -10.20   46.10
   1  -4   6   22.80   48.70
  -2   4  -6  196.18  100.09
  -2   4  -6  201.58   85.99
   2  -4   6  237.68   89.59
   2  -4   6  141.39   73.39
   2  -4   6  -86.19  150.78
   2  -4   6  436.26  103.59
  -3   4  -6  233.58  114.09
  -3   4  -6  165.28   98.29
   3  -4   6  284.67   93.39
   3  -4   6  -58.09  172.98
   3  -4   6  230.18   95.19
   3  -4   6  152.48   88.39
   3  -4   6  531.15  284.57
   3   3  -6  114.79   86.29
  -3  -3   6  127.39   89.09
  -3  -3   6   52.69   49.20
  -2  -3   6  101.09  103.09
  -2  -3   6  118.29  189.58
  -1  -3   6  831.32  113.69
  -1  -3   6 1249.88  136.29
  -1  -3   6  876.81  190.78
   0  -3   6  892.11   91.49
   0  -3   6  681.43  104.09
   0  -3   6  814.52  170.18
   0  -3   6 1012.20  115.99
  -1   3  -6  127.59   64.69
  -1   3  -6  269.87   82.39
   1  -3   6  220.48   76.79
   1  -3   6  254.87   66.39
   1  -3   6  121.19  113.69
   1  -3   6  202.48   64.99
   1  -3   6  105.89   74.59
  -2   3  -6   98.69   70.29
  -2   3  -6   45.90   82.39
  -2   3  -6  115.99   63.89
   2  -3   6  111.69   97.79
   2  -3   6   35.90  120.69
   2  -3   6    7.30   48.20
   2  -3   6   60.29   56.09
   2  -3   6  129.79  113.59
   2  -3   6  120.69   54.59
  -3   3  -6  310.37  168.98
  -3   3  -6  531.35  128.09
  -3   3  -6  666.33  126.99
   3  -3   6  567.94  193.68
   3  -3   6  326.87  132.49
   3  -3   6  523.85  112.29
   3  -3   6  664.23  128.89
   3  -3   6  449.66  108.69
   3   2  -6  628.14  169.08
  -3  -2   6  494.95  117.49
  -3  -2   6  339.17  101.89
  -3  -2   6  604.14  138.39
   2   2  -6   37.50   48.00
  -2  -2   6  210.88   72.59
  -2  -2   6   51.79  141.39
  -2  -2   6  174.68   74.59
  -2  -2   6  152.58   59.39
  -2  -2   6  239.18   82.49
   1   2  -6   28.60   50.69
  -1  -2   6   52.79   43.50
  -1  -2   6   35.90   48.90
  -1  -2   6   41.70   58.79
  -1  -2   6   -7.30   37.50
   0   2  -6  514.95   98.69
   0  -2   6  598.94   83.89
   0  -2   6  551.94  100.29
   0  -2   6  710.13  163.28
   0  -2   6  605.84  136.39
   0  -2   6  559.64   94.99
  -1   2  -6 1218.68  124.29
   1  -2   6  912.11  216.48
   1  -2   6 1166.38  109.79
   1  -2   6 1260.27  121.59
   1  -2   6 1292.87  118.29
  -2   2  -6 -111.49   60.89
  -2   2  -6   -7.00   73.19
  -2   2  -6   71.39   63.39
   2  -2   6   59.89   95.09
   2  -2   6  100.69   56.99
   2  -2   6   20.40   34.90
   2  -2   6   43.50   62.09
   2  -2   6  102.69   58.49
  -3   2  -6  -62.19   71.69
  -3   2  -6   29.90  245.08
  -3   2  -6  105.59  113.09
   3  -2   6  126.59   72.69
   3  -2   6   85.19  182.88
   3  -2   6   67.59   84.39
   3  -2   6 -159.38  138.19
   3  -2   6  109.49  141.29
   3  -2   6   20.30   47.10
   4   1  -6  275.77  145.89
   4   1  -6   57.69  316.57
   4   1  -6  139.19   99.89
  -4  -1   6  252.17   96.09
  -4  -1   6  112.09  136.49
  -4  -1   6  149.09   88.69
  -4  -1   6  129.39   80.39
   3   1  -6  449.95   98.39
   3   1  -6  223.08  118.99
  -3  -1   6  406.26  171.98
  -3  -1   6  725.93  127.49
  -3  -1   6  598.84  121.79
  -3  -1   6  781.02  141.89
   2   1  -6  341.87  121.39
   2   1  -6  378.66   76.59
  -2  -1   6  370.46   74.79
  -2  -1   6  482.05  141.19
  -2  -1   6  301.67   70.79
  -2  -1   6  343.27   91.99
   1   1  -6  -32.70   60.29
   1   1  -6  102.79   45.80
   1   1  -6   11.60   49.60
  -1  -1   6   -1.50   40.40
  -1  -1   6   10.00   29.40
  -1  -1   6   33.00   90.69
  -1  -1   6   88.49   49.99
  -1  -1   6  -20.60   62.29
   0   1  -6  376.86   73.39
   0   1  -6  283.17   72.19
   0  -1   6  313.87   72.19
   0  -1   6  344.97   86.49
   0  -1   6  363.06  113.69
   0  -1   6  222.68   98.49
   0  -1   6  344.77   75.69
   0  -1   6  255.07   90.29
   0  -1   6  247.68   71.19
   0  -1   6  400.96   74.79
  -1   1  -6  845.62  109.29
  -1   1  -6  532.95   94.99
   1  -1   6  630.14   93.69
   1  -1   6  522.95  109.79
   1  -1   6  629.84   96.99
   1  -1   6  475.75  105.49
   1  -1   6  513.75  130.79
   1  -1   6  780.42  196.28
   1  -1   6  715.43  104.99
   1  -1   6  357.66  105.99
  -2   1  -6  267.77   82.79
  -2   1  -6  185.58   81.69
  -2   1  -6  187.18   75.09
   2  -1   6  273.77   83.99
   2  -1   6  344.57   82.99
   2  -1   6  218.98  128.29
   2  -1   6  253.77  119.29
   2  -1   6    8.40  195.48
   2  -1   6   78.79   81.69
  -3   1  -6   79.79   84.39
  -3   1  -6  -19.10  100.99
  -3   1  -6  -30.00  127.69
  -3   1  -6 -173.68  120.29
   3  -1   6  108.19   83.29
   3  -1   6  199.18   85.49
   3  -1   6   73.19  197.28
   3  -1   6   80.79  130.29
   3  -1   6  -18.40   36.80
   4   0  -6  205.38  146.89
   4   0  -6   53.69   97.99
   4   0  -6   38.10  165.18
  -4   0   6 -151.38   77.49
  -4   0   6    8.60   74.39
  -4   0   6 -256.97  157.78
  -4   0   6    8.60   39.80
  -4   0   6  268.87  138.39
  -4   0   6    5.70   74.69
   3   0  -6  226.98   84.99
  -3   0   6   41.60   88.99
  -3   0   6  104.19   84.29
  -3   0   6  227.38   80.49
  -3   0   6  297.67   79.29
  -3   0   6  203.98  100.49
  -3   0   6  225.08   72.49
   2   0  -6  586.74  183.38
  -2   0   6 1097.09  208.68
  -2   0   6 1007.00  118.09
  -2   0   6 1144.79  110.29
  -2   0   6  707.73  118.19
  -2   0   6  868.71  113.19
  -2   0   6  948.21  108.99
   1   0  -6  179.78   66.39
   1   0  -6  191.58  105.89
   1   0  -6  471.65   87.99
  -1   0   6  277.57   68.69
  -1   0   6  286.87   64.69
  -1   0   6  250.77  110.99
  -1   0   6  140.49   87.59
  -1   0   6  418.06   75.29
   0   0  -6  -36.70   54.39
   0   0  -6   66.79   63.19
   0   0  -6  113.39   55.79
   0   0  -6   35.70   45.40
   0   0   6   39.30   44.40
   0   0   6  -47.20   62.19
   0   0   6  101.29   48.30
   0   0   6   40.10   71.69
   0   0   6  110.29   47.30
   0   0   6   95.09   57.69
   0   0   6   29.80   38.70
   0   0   6   -0.70   30.20
  -1   0  -6  504.85   91.69
  -1   0  -6  595.74  100.09
   1   0   6  556.44  154.78
   1   0   6  539.65  167.48
   1   0   6  371.26  104.09
   1   0   6  480.95   96.19
   1   0   6  370.16  110.59
   1   0   6  561.24   94.49
  -2   0  -6 1088.49  183.68
  -2   0  -6 1085.49  160.18
  -2   0  -6 1195.78  150.38
   2   0   6 1242.78  142.79
   2   0   6  796.52  226.28
   2   0   6 1100.09  137.89
   2   0   6 1024.50  165.18
   2   0   6 1012.20  187.98
   2   0   6  664.43  168.48
   2   0   6  870.51  193.98
  -3   0  -6  342.47  118.39
  -3   0  -6  185.48  140.59
  -3   0  -6   70.59  134.19
   3   0   6  371.76  212.88
   3   0   6  133.79  155.38
   3   0   6  356.56  118.79
   3   0   6  255.57  165.28
   3   0   6  612.74  125.49
   4  -1  -6  222.38  101.99
   4  -1  -6  113.19  175.28
   4  -1  -6  222.68  137.69
  -4   1   6  386.46  131.79
  -4   1   6   -6.30   75.29
  -4   1   6  106.79   82.29
  -4   1   6  131.69   86.59
   3  -1  -6  -13.20   98.69
   3  -1  -6  134.19   96.19
   3  -1  -6   73.89   76.29
   3  -1  -6  178.58   77.39
   3  -1  -6  168.98   74.69
  -3   1   6  242.78   93.49
  -3   1   6   33.70   66.49
  -3   1   6  165.68   73.29
  -3   1   6  144.49   75.79
  -3   1   6  248.38   74.09
   2  -1  -6  753.12  115.49
   2  -1  -6  509.25   96.39
   2  -1  -6  809.42  314.87
  -2   1   6  683.43  103.79
  -2   1   6  817.32  103.19
  -2   1   6  288.27  135.89
  -2   1   6  697.93   99.79
  -2   1   6  702.83  123.09
  -2   1   6  691.83  105.39
   1  -1  -6  652.23  103.69
   1  -1  -6  730.23  105.69
   1  -1  -6  680.63  185.48
  -1   1   6  718.43   97.39
  -1   1   6  690.13  173.08
  -1   1   6  625.54   95.29
  -1   1   6  786.02  102.59
  -1   1   6  485.85  110.09
   0  -1  -6  347.27   78.29
   0  -1  -6  397.86   79.29
   0  -1  -6  197.98   73.49
   0  -1  -6  214.88   70.79
   0   1   6  269.77   64.29
   0   1   6  347.17  135.39
   0   1   6  325.77   74.59
   0   1   6  380.66  123.49
   0   1   6  322.47   79.89
   0   1   6  255.27   83.49
   0   1   6  298.17   69.29
  -1  -1  -6   64.09   58.79
  -1  -1  -6  -61.59   66.49
  -1  -1  -6  196.08   79.49
  -1  -1  -6   -8.40   76.79
   1   1   6  161.88  112.79
   1   1   6   51.89   87.99
   1   1   6   71.19   55.19
   1   1   6   -1.10   35.80
   1   1   6   11.20   54.49
   1   1   6   18.90   55.99
  -2  -1  -6  562.04  130.09
   2   1   6  762.82  160.28
   2   1   6  432.36  189.68
   2   1   6  477.15  150.28
   2   1   6  423.26  110.49
   2   1   6  569.14  173.58
  -3  -1  -6  745.53  160.78
  -3  -1  -6  477.25  126.59
  -3  -1  -6  590.84  187.98
   3   1   6  762.02  155.48
   3   1   6  420.16  174.68
   3   1   6  779.32  144.89
   3   1   6  895.81  328.07
   3   1   6  552.94  263.37
   3   1   6  621.24  221.78
   4  -2  -6  330.67  303.77
   4  -2  -6  185.68  146.29
   4  -2  -6  478.15  125.39
   4  -2  -6  455.15  180.98
   4  -2  -6  173.88  199.58
  -4   2   6  301.07  107.79
  -4   2   6  405.56  193.78
  -4   2   6  239.28  114.89
  -4   2   6  170.68  174.48
  -4   2   6  289.37   99.89
  -4   2   6  336.17  107.39
   3  -2  -6   71.09  101.19
   3  -2  -6  -73.29  101.39
   3  -2  -6 -154.28  174.38
   3  -2  -6 -122.29   66.19
   3  -2  -6   -8.70   30.70
   3  -2  -6   43.70   69.39
  -3   2   6  158.68   97.59
  -3   2   6  -18.60   30.10
  -3   2   6 -100.49   65.89
  -3   2   6  126.69   66.29
   2  -2  -6  171.28   77.59
   2  -2  -6  185.98   79.19
   2  -2  -6  194.28  111.09
   2  -2  -6  206.38   76.49
  -2   2   6  238.68   68.99
  -2   2   6   92.69   75.79
  -2   2   6  219.68   84.99
  -2   2   6  190.78   96.29
  -2   2   6  244.58   76.79
  -2   2   6  380.86   76.79
   1  -2  -6 1467.25  141.19
   1  -2  -6 1545.65  141.39
   1  -2  -6 1364.76  177.98
   1  -2  -6 1115.99  144.99
   1  -2  -6 1204.28  256.77
   1  -2  -6 1270.57  169.58
  -1   2   6 1548.05  135.69
  -1   2   6 1263.87  165.28
  -1   2   6 1586.94  213.58
  -1   2   6 1688.43  136.79
  -1   2   6 1464.95  135.79
   0  -2  -6 1292.07  146.49
   0  -2  -6 1423.16  143.29
   0  -2  -6 1467.85  143.69
   0   2   6 1411.66  127.69
   0   2   6 1378.06  249.97
   0   2   6 1375.36  138.99
   0   2   6 1285.37  166.38
   0   2   6 1473.65  136.29
   0   2   6  906.41  206.38
  -1  -2  -6   15.10   92.09
  -1  -2  -6  103.09   97.69
  -1  -2  -6  186.48   86.29
  -1  -2  -6  164.28   68.99
   1   2   6   50.39   73.69
   1   2   6  269.57  137.29
   1   2   6  193.58  108.09
   1   2   6   47.70   65.69
   1   2   6  243.38   85.29
   1   2   6  115.29   97.29
  -2  -2  -6  -49.50  126.29
  -2  -2  -6   74.59  127.39
  -2  -2  -6  199.58  107.09
   2   2   6  171.28  134.49
   2   2   6  139.89   85.39
   2   2   6  185.88   94.59
   2   2   6  108.69  108.69
  -3  -2  -6  -14.30  183.88
  -3  -2  -6  749.23  229.88
  -3  -2  -6  314.47  130.69
   3   2   6  196.48  168.88
   3   2   6  172.38  152.78
   3   2   6  399.46  137.89
   3   2   6  400.66  141.79
   3   2   6  826.82  320.77
   4  -3  -6  418.26  182.08
   4  -3  -6  356.76  120.29
   4  -3  -6  321.97  121.49
   4  -3  -6  260.17  179.38
  -4   3   6  162.98  168.38
  -4   3   6  237.18  174.18
  -4   3   6  349.17  125.79
  -4   3   6  123.09   78.29
  -4   3   6  332.97  107.39
   3  -3  -6  480.15  135.49
   3  -3  -6  767.22  131.99
   3  -3  -6  523.15  112.59
   3  -3  -6  483.85  136.99
   3  -3  -6  585.84  219.18
   3  -3  -6  549.65  180.48
  -3   3   6  648.44  183.58
  -3   3   6  379.36  135.59
   2  -3  -6   18.00   87.69
   2  -3  -6   18.40   61.99
   2  -3  -6   54.39   79.79
   2  -3  -6  112.49   89.89
   2  -3  -6  196.18   75.39
  -2   3   6   38.50   88.09
  -2   3   6   28.40   63.09
  -2   3   6  -26.20   57.39
  -2   3   6   88.39   57.69
  -2   3   6   30.70   47.40
  -2   3   6   26.50  107.59
   1  -3  -6  127.79  126.29
   1  -3  -6  129.79   73.09
   1  -3  -6  140.29   88.29
   1  -3  -6   -2.70   94.39
   1  -3  -6  140.69   65.59
  -1   3   6   45.60   76.59
  -1   3   6  163.38  107.39
  -1   3   6  133.39   69.89
  -1   3   6   63.29   87.89
  -1   3   6  156.38   71.99
   0  -3  -6  852.21  130.39
   0  -3  -6  800.52  147.29
   0  -3  -6  655.63  138.29
   0  -3  -6  825.72  135.59
   0   3   6  713.83  133.49
   0   3   6  618.04  135.19
   0   3   6  824.92  199.08
   0   3   6  785.52  129.09
   0   3   6  788.92  124.49
   0   3   6  592.54  183.08
  -1  -3  -6  491.35  157.28
  -1  -3  -6  497.05  138.39
   1   3   6  807.62  140.09
   1   3   6  349.77  145.79
   1   3   6  603.74  266.57
   1   3   6  776.82  203.98
   1   3   6  667.03  195.48
  -2  -3  -6   90.59   89.29
  -2  -3  -6   85.49  161.18
  -2  -3  -6  255.07  128.89
  -2  -3  -6  234.98  179.28
   2   3   6  687.73  371.46
   2   3   6   78.99  113.99
   2   3   6 -164.78  190.28
   2   3   6  333.07  111.19
   2   3   6  124.19  107.69
   2   3   6   41.70   96.99
   4  -4  -6  370.36  119.39
   4  -4  -6  520.15  147.69
   4  -4  -6  639.44  420.76
   4  -4  -6   86.69  173.38
  -4   4   6  -32.80  204.58
  -4   4   6  670.83  216.48
  -4   4   6  381.46  183.28
  -4   4   6  331.47  120.09
   3  -4  -6  188.88  121.89
   3  -4  -6  275.27  111.79
   3  -4  -6  269.37  150.38
   3  -4  -6  450.15  110.59
  -3   4   6  474.65  161.48
  -3   4   6  420.66  111.39
  -3   4   6  231.58  112.19
  -3   4   6  391.36  116.79
   2  -4  -6  460.55  113.19
   2  -4  -6  586.84  164.78
   2  -4  -6  205.48  116.39
   2  -4  -6  440.56  144.59
   2  -4  -6  206.28  122.69
  -2   4   6  497.75  106.19
  -2   4   6  605.24  110.69
  -2   4   6  372.16  127.09
  -2   4   6  460.15  148.29
  -2   4   6  411.66  160.08
   1  -4  -6 -209.68  110.69
   1  -4  -6   -4.90   45.70
   1  -4  -6  -57.69  100.39
   1  -4  -6  -13.20   70.89
  -1   4   6    5.60   70.09
  -1   4   6  -18.30   31.30
  -1   4   6  -69.59  101.39
  -1   4   6    4.30  134.19
  -1   4   6  -20.30   64.79
   0  -4  -6  153.28   81.99
   0  -4  -6    7.60   81.89
   0  -4  -6  328.47  107.09
   0  -4  -6  396.16  210.08
   0   4   6   35.80   84.29
   0   4   6  128.59   78.29
   0   4   6   99.29  115.79
   0   4   6  289.67  124.49
   0   4   6 -134.69  149.29
   0   4   6   -9.10   39.70
  -1  -4  -6  418.06  171.58
  -1  -4  -6  416.56  127.89
  -1  -4  -6  273.17  183.28
  -1  -4  -6  480.15  121.59
   1   4   6  -80.99  271.97
   1   4   6  192.58  120.19
   1   4   6  599.44  185.78
   1   4   6  255.67  118.49
   1   4   6  595.24  189.68
   1   4   6  596.04  125.49
   3  -5  -6  343.37  194.08
   3  -5  -6 -134.99  300.27
   3  -5  -6  350.46  137.59
   3  -5  -6  296.47  113.19
   3  -5  -6  390.96  327.77
   3  -5  -6  229.58  223.58
  -3   5   6  524.45  126.89
  -3   5   6  166.28   92.69
  -3   5   6  463.15  128.39
  -3   5   6  497.25  208.98
  -3   5   6  168.38  443.66
   2  -5  -6  567.74  150.18
   2  -5  -6  296.37  168.38
   2  -5  -6  204.18  119.39
   2  -5  -6  288.67  109.29
  -2   5   6  571.94  124.89
  -2   5   6  515.55  116.99
  -2   5   6  382.26  166.48
   1  -5  -6  453.95  144.09
   1  -5  -6  -15.00  160.78
   1  -5  -6  169.68   96.89
   1  -5  -6  428.26  125.99
  -1   5   6  546.15  190.28
  -1   5   6  353.76  110.39
  -1   5   6  204.58  120.89
  -1   5   6 -150.68  205.48
   0  -5  -6  -32.40  100.19
   0  -5  -6   77.49   90.09
   0  -5  -6   87.79  240.08
   0  -5  -6  100.69  160.88
   0   5   6   85.59   97.69
   0   5   6  -81.29  182.88
   0   5   6  -24.20  115.19
   0   5   6    9.30   66.29
   0   5   6  249.48  247.68
   0   5   6   17.90   60.69
   0  -5   7   95.79   96.99
   1  -5   7  277.37   84.19
   1  -5   7  226.08  101.29
  -2   5  -7  -49.50   94.19
   2  -5   7   51.29   88.89
   2  -5   7  151.18   89.79
   2  -5   7  110.69  112.29
  -2  -4   7   65.99  114.59
   0  -4   7  132.09   58.69
   0  -4   7  337.67   92.29
   0  -4   7  159.18  246.48
   0  -4   7   98.09   67.39
   1  -4   7  643.64  130.19
   1  -4   7  359.76  112.19
   1  -4   7  265.67  252.77
   1  -4   7  549.15  168.58
  -2   4  -7  162.38  130.69
  -2   4  -7  431.46  115.39
  -2   4  -7  432.86  156.28
   2  -4   7  494.85  113.39
   2  -4   7  237.08  148.59
   2  -4   7  325.87   99.39
   2  -4   7   86.89   63.79
   2  -4   7  224.78  141.59
  -2  -3   7  455.75  123.89
  -2  -3   7  194.98   80.39
  -1  -3   7  330.07  213.58
  -1  -3   7  432.06   97.19
  -1  -3   7  361.26   88.09
  -1  -3   7  299.77   93.09
  -1  -3   7  317.77  109.89
   0  -3   7   14.30   49.20
   0  -3   7  -18.20   82.39
   0  -3   7   51.59  171.98
   0  -3   7    8.50   25.90
  -1   3  -7  516.65  110.09
  -1   3  -7  725.33  118.39
   1  -3   7  519.05  109.19
   1  -3   7  506.25  186.88
   1  -3   7  609.74  130.39
   1  -3   7  442.76  148.89
   1  -3   7  439.46  136.49
   1  -3   7  525.55  168.18
  -2   3  -7  470.05  150.58
  -2   3  -7  597.54  143.79
   2  -3   7  543.25  113.09
   2  -3   7  225.48  192.98
   2  -3   7  759.92  204.48
   2  -3   7  459.05  172.18
   2  -3   7  671.33  190.78
   2  -3   7  595.14  117.19
   2  -3   7  599.24  112.69
  -3   3  -7  387.86  133.09
  -3   3  -7  183.28  139.79
   3  -3   7  333.27  269.27
   3  -3   7  374.06  115.89
   3  -3   7  277.07  286.37
   3  -3   7  320.87  222.18
   3  -3   7   83.99   83.29
   3  -3   7  227.28  109.09
   3   2  -7  -15.90   55.89
  -3  -2   7 -212.78  113.79
  -3  -2   7   80.99   94.99
  -3  -2   7   18.00   45.80
  -3  -2   7   38.40   80.69
   2   2  -7  315.57  133.09
  -2  -2   7  777.72  174.38
  -2  -2   7  569.44  136.59
  -2  -2   7  646.34  124.29
  -2  -2   7 -115.29  372.66
   1   2  -7  720.13  126.99
  -1  -2   7  529.45  128.69
  -1  -2   7  244.88  198.48
  -1  -2   7  773.52  114.39
  -1  -2   7  783.12  171.88
  -1  -2   7  892.21  146.79
   0   2  -7  421.46   90.39
   0  -2   7  416.16  113.29
   0  -2   7  335.67   84.79
   0  -2   7  184.58  141.79
   0  -2   7  122.29   91.29
   0  -2   7  365.36  145.79
   0  -2   7  245.38   94.49
   0  -2   7  247.78   75.49
  -1   2  -7   80.39   71.39
   1  -2   7  -61.39   56.99
   1  -2   7  196.28  126.19
   1  -2   7   23.90  140.09
   1  -2   7  137.79  100.69
   1  -2   7   23.70   43.60
  -2   2  -7  255.57  101.69
  -2   2  -7  170.18  112.39
   2  -2   7  402.66  146.49
   2  -2   7  120.89   86.59
   2  -2   7  269.57   97.39
   2  -2   7  327.67  190.68
   2  -2   7  330.47   94.19
   2  -2   7  267.17   95.99
   2  -2   7  114.09  111.39
  -3   2  -7  419.76  140.49
  -3   2  -7  293.77  178.98
   3  -2   7  578.94  132.69
   3  -2   7  346.37  254.77
   3  -2   7  554.54  205.48
   3  -2   7  423.56  111.89
   3  -2   7  789.72  226.28
   3   1  -7   21.20   92.09
   3   1  -7  -12.50   43.80
   3   1  -7  -30.10  125.79
  -3  -1   7  -16.60   77.69
  -3  -1   7   19.80   88.09
  -3  -1   7   -4.90   40.30
  -3  -1   7   76.69  112.19
   2   1  -7  291.87  165.58
   2   1  -7  215.68   85.29
   2   1  -7  135.39   92.59
  -2  -1   7   67.89   88.09
  -2  -1   7  133.59  110.09
  -2  -1   7  234.08   83.99
  -2  -1   7  216.38  171.78
  -2  -1   7  247.08  117.69
  -2  -1   7  268.77   84.89
   1   1  -7  843.92  140.29
   1   1  -7 1206.18  147.39
  -1  -1   7 1124.19  153.48
  -1  -1   7 1270.17  122.29
  -1  -1   7  880.91  123.89
  -1  -1   7  857.91  203.38
   0   1  -7 1003.90  192.28
   0  -1   7  706.23  110.09
   0  -1   7  545.05  158.98
   0  -1   7  565.04  103.89
   0  -1   7  681.53  130.19
   0  -1   7  631.74  102.69
   0  -1   7  895.21  108.99
  -1   1  -7  278.07   96.59
  -1   1  -7  388.66   93.09
   1  -1   7  329.37  133.99
   1  -1   7  316.67  115.09
   1  -1   7  252.77   81.79
   1  -1   7  251.07  123.49
   1  -1   7  198.58   77.29
   1  -1   7  280.27   84.59
  -2   1  -7 -107.79  131.99
  -2   1  -7  -13.70  104.39
  -2   1  -7  112.29  105.49
   2  -1   7   14.40   93.09
   2  -1   7  260.57  175.18
   2  -1   7   57.79   73.69
   2  -1   7   23.60   50.79
   2  -1   7 -149.59  150.18
  -3   1  -7  352.06  159.08
  -3   1  -7  -61.79  183.58
   3  -1   7  271.77  118.59
   3  -1   7  162.88  130.99
   3  -1   7 -452.45  283.17
   3  -1   7  692.43  253.77
   3  -1   7 -242.98  218.78
   3  -1   7  163.88  149.88
   3  -1   7  416.26  132.59
   3   0  -7  281.67  137.09
   3   0  -7  601.74  120.59
  -3   0   7  388.56  104.69
  -3   0   7  571.24  182.98
  -3   0   7  813.42  207.68
  -3   0   7  556.44  117.29
  -3   0   7  643.34  135.39
  -3   0   7  696.13  150.68
   2   0  -7  -33.80   33.50
   2   0  -7   50.29  116.29
   2   0  -7   59.89   82.19
   2   0  -7  131.39  118.19
  -2   0   7   90.99   75.69
  -2   0   7  -34.60   65.49
  -2   0   7  -87.79   63.09
  -2   0   7  -20.70   64.49
  -2   0   7   -5.50   91.79
  -2   0   7  -11.60   79.09
   1   0  -7   37.80   71.49
   1   0  -7   -9.30   84.29
   1   0  -7  110.89   76.99
   1   0  -7   70.39   71.79
   1   0  -7   10.70   67.49
  -1   0   7   63.89   61.69
  -1   0   7   43.70   56.09
  -1   0   7   30.00   84.39
  -1   0   7   60.09   59.79
  -1   0   7   77.79   71.39
   0   0  -7 1939.91  168.88
   0   0  -7 1709.03  162.88
   0   0  -7 1303.67  177.88
   0   0   7 1768.62  181.58
   0   0   7 1783.92  149.79
   0   0   7 1546.95  181.38
   0   0   7 1681.33  146.99
   0   0   7 1748.82  152.38
  -1   0  -7  605.74  136.09
  -1   0  -7  561.04  153.98
  -1   0  -7  855.91  128.59
   1   0   7  441.06  163.58
   1   0   7  598.24  141.19
   1   0   7  560.64  112.99
   1   0   7  346.87  138.79
   1   0   7  608.54  114.39
   1   0   7  511.05  105.39
  -2   0  -7  235.38  126.79
  -2   0  -7   64.39  137.29
  -2   0  -7  105.29  118.99
   2   0   7   62.39   84.19
   2   0   7   46.70   87.79
   2   0   7   29.20  148.29
   2   0   7  -13.30   35.20
   2   0   7  185.38   92.99
   2   0   7  260.27  200.38
  -3   0  -7   88.59  113.39
  -3   0  -7  252.67  199.48
   3   0   7  -27.20  104.79
   3   0   7 -327.37  302.87
   3   0   7  346.67  250.57
   3   0   7   -3.70  114.69
   3   0   7  132.39  114.79
   3   0   7  112.89  155.68
   3   0   7  239.58  221.78
  -4   1   7  229.08  118.69
   3  -1  -7  245.38  133.59
   3  -1  -7  710.73  374.66
   3  -1  -7  154.28  156.18
   3  -1  -7  604.94  129.99
   3  -1  -7  589.84  123.39
  -3   1   7  164.48  128.19
  -3   1   7  514.45  138.59
  -3   1   7  385.66  107.89
  -3   1   7  504.15  109.19
  -3   1   7  424.86  111.99
  -3   1   7  683.93  133.69
   2  -1  -7  427.46  166.68
   2  -1  -7  400.16  113.79
   2  -1  -7  367.96  117.09
   2  -1  -7  473.75  113.89
   2  -1  -7  608.64  120.49
  -2   1   7  452.65  124.09
  -2   1   7  447.96  134.29
  -2   1   7  439.16  106.49
  -2   1   7  433.26  106.79
  -2   1   7  468.75  161.98
   1  -1  -7    8.70   74.99
   1  -1  -7   23.80  162.48
   1  -1  -7    0.10   61.79
   1  -1  -7  157.38  100.69
   1  -1  -7   51.09   77.89
  -1   1   7  -20.50   52.79
  -1   1   7  -48.70  103.09
  -1   1   7 -101.89   87.09
  -1   1   7   56.29   62.69
  -1   1   7  -54.39   58.19
  -1   1   7  296.77  110.79
  -1   1   7   60.09   72.69
   0  -1  -7  177.98   75.49
   0  -1  -7  -76.69   83.49
   0  -1  -7  126.39   76.79
   0   1   7   78.69   60.49
   0   1   7   48.10   93.89
   0   1   7   24.10   62.99
   0   1   7   80.09   63.29
   0   1   7    4.50   48.20
   0   1   7  -27.00   64.29
  -1  -1  -7  322.47  115.89
  -1  -1  -7  439.66  110.29
  -1  -1  -7  307.17  127.49
  -1  -1  -7  432.76  108.09
   1   1   7  435.46  145.99
   1   1   7  489.15   97.69
   1   1   7  281.77  124.79
   1   1   7  771.42  132.89
   1   1   7   54.59  202.18
   1   1   7  563.04  175.08
  -2  -1  -7  572.54  142.29
  -2  -1  -7  264.07  112.69
  -2  -1  -7  161.58  158.68
   2   1   7  350.26  416.46
   2   1   7  221.78   98.09
   2   1   7  278.67  179.98
   2   1   7  252.37  105.09
   2   1   7  277.17  171.18
   2   1   7  295.47  174.68
   3  -2  -7  170.78  135.79
   3  -2  -7  166.68  104.99
   3  -2  -7  205.68  265.77
   3  -2  -7  244.78  151.88
   3  -2  -7  294.47  161.68
  -3   2   7  218.08   95.99
  -3   2   7  298.87   91.89
  -3   2   7  280.77  109.49
  -3   2   7  113.19  100.79
  -3   2   7  234.78  125.89
   2  -2  -7  387.76  136.29
   2  -2  -7  531.65  121.19
   2  -2  -7  337.57  126.49
   2  -2  -7  240.18  130.59
   2  -2  -7  469.15  178.98
  -2   2   7  531.85  112.59
  -2   2   7  380.76  134.49
  -2   2   7  611.54  120.39
  -2   2   7  670.43  140.99
  -2   2   7  578.94  117.29
   1  -2  -7  135.39   94.39
   1  -2  -7  317.97  100.39
   1  -2  -7  308.37   92.39
   1  -2  -7  -64.59  102.09
   1  -2  -7   95.89   72.59
   1  -2  -7  139.29   97.39
  -1   2   7  219.18  109.29
  -1   2   7  214.38  140.89
  -1   2   7  154.18   72.69
  -1   2   7  217.58   83.39
  -1   2   7  216.18   81.39
  -1   2   7   41.30   98.99
   0  -2  -7  -40.80   92.99
   0  -2  -7   -6.40   69.59
   0  -2  -7  -24.30   77.29
   0   2   7    3.60   44.20
   0   2   7  -28.70   72.79
   0   2   7 -100.39   62.69
   0   2   7 -144.19  124.59
   0   2   7  -61.49   57.69
   0   2   7   -1.70   30.20
   0   2   7  -89.79  107.19
  -1  -2  -7  -21.50  128.99
  -1  -2  -7  146.89   94.59
  -1  -2  -7  358.86  139.09
   1   2   7  241.68  121.59
   1   2   7  498.85  183.58
   1   2   7   48.70   84.69
   1   2   7  -39.50  147.99
   1   2   7  111.99   93.29
   1   2   7  299.17  106.99
  -2  -2  -7  313.77  133.29
  -2  -2  -7    5.50  192.88
  -2  -2  -7  501.65  165.58
  -2  -2  -7  481.75  195.78
   2   2   7  458.15  169.38
   2   2   7  308.07  128.49
   2   2   7  577.04  133.69
   2   2   7  307.67  142.59
   2   2   7   -1.30  219.18
   2   2   7 1054.69  291.77
   3  -3  -7   70.29  152.98
   3  -3  -7   -6.50   47.60
   3  -3  -7  154.38  111.39
   3  -3  -7 -242.68  162.88
   3  -3  -7  -86.59  168.68
   3  -3  -7   87.09   96.79
  -3   3   7   10.40   59.69
  -3   3   7 -257.57  159.78
  -3   3   7   20.70   99.29
  -3   3   7   44.10   84.69
   2  -3  -7  125.69  135.29
   2  -3  -7  254.47  106.39
   2  -3  -7  226.88  103.09
   2  -3  -7   87.99  113.09
   2  -3  -7  346.87  165.68
   2  -3  -7  243.48  133.29
  -2   3   7  288.27   92.49
  -2   3   7  230.18   91.09
  -2   3   7   62.19   90.89
  -2   3   7  416.26  106.99
   1  -3  -7  255.17  120.09
   1  -3  -7  604.14  128.29
   1  -3  -7  632.64  126.09
   1  -3  -7  121.09  138.09
   1  -3  -7  360.26  131.19
  -1   3   7  360.36  138.29
  -1   3   7  434.16  163.08
  -1   3   7  419.06  105.69
  -1   3   7  301.97  163.18
  -1   3   7  655.73  116.49
   0  -3  -7  125.69   99.19
   0  -3  -7  150.78   86.69
   0  -3  -7  244.98  122.09
   0   3   7 -119.99  184.88
   0   3   7  139.99  103.69
   0   3   7  260.37   94.69
   0   3   7  148.39  135.29
   0   3   7  100.59  102.19
  -1  -3  -7  246.88  166.48
  -1  -3  -7   84.59   80.59
  -1  -3  -7  244.88  181.58
  -1  -3  -7  -83.89   96.49
   1   3   7   -9.80   45.20
   1   3   7  -71.49   83.79
   1   3   7   58.19  102.39
   1   3   7  -69.49  236.18
   1   3   7 -289.47  183.98
   1   3   7   18.40   63.69
   3  -4  -7  376.76  364.06
   3  -4  -7   -3.60  102.89
   3  -4  -7  -20.60  236.98
   3  -4  -7   -9.60  120.89
  -3   4   7 -171.68  202.18
  -3   4   7   34.00   98.69
  -3   4   7 -310.67  230.08
  -3   4   7   21.00   61.29
  -3   4   7  207.68  122.39
   2  -4  -7  451.95  332.97
   2  -4  -7   81.29  156.98
   2  -4  -7 -166.48  155.28
   2  -4  -7  123.69  105.49
   2  -4  -7  107.59  100.99
  -2   4   7  152.38   97.59
  -2   4   7   32.50   64.89
  -2   4   7  208.58  109.39
   1  -4  -7  524.55  126.09
   1  -4  -7  404.46  162.98
   1  -4  -7  296.57  153.58
   1  -4  -7  357.76  109.79
   1  -4  -7  368.56  152.58
  -1   4   7  135.99  193.48
  -1   4   7  414.96  116.89
  -1   4   7  171.88  100.99
  -1   4   7  316.47  123.79
  -1   4   7  150.08  188.78
   0  -4  -7  320.17  118.09
   0  -4  -7  279.77  164.68
   0  -4  -7  326.57  156.98
   0  -4  -7  -19.70  161.08
   0   4   7  407.46  179.08
   0   4   7  311.47  112.49
   0   4   7  474.85  175.38
   0   4   7  200.38  113.49
   0   4   7 -113.79  399.06
   0   4   7  413.96  123.69
   0  -4   8   68.79   60.39
   0  -4   8  175.28  100.89
   0  -4   8  177.88  103.09
   1  -4   8   65.19  130.19
   1  -4   8   44.70   91.69
   1  -4   8   29.10   65.69
   1  -4   8  140.39   85.99
   1  -4   8  -34.30  161.58
  -1  -3   8  -58.99  107.69
  -1  -3   8   70.59   59.79
  -1  -3   8  -12.80   84.99
   0  -3   8  247.18   98.19
   0  -3   8  223.08   97.89
   0  -3   8  231.48  109.29
   0  -3   8  131.99  136.69
   0  -3   8  294.97   88.59
  -1   3  -8  331.57  109.39
  -1   3  -8  226.58  139.09
   1  -3   8   68.39   63.29
   1  -3   8  184.08  133.09
   1  -3   8  306.97  160.78
   1  -3   8  283.17   99.09
   1  -3   8  335.37  113.49
  -2  -2   8  322.77  141.59
  -2  -2   8  143.79  102.39
  -2  -2   8  248.38  104.79
  -2  -2   8  267.77  116.69
   1   2  -8 -146.09  109.79
  -1  -2   8   20.30   52.49
  -1  -2   8  276.77  112.69
  -1  -2   8   58.69   77.09
  -1  -2   8   49.50   78.59
  -1  -2   8   -9.80   41.40
   0   2  -8   86.99   93.39
   0   2  -8  193.28  106.89
   0  -2   8   62.79   66.49
   0  -2   8  129.39   80.49
   0  -2   8   32.40   80.69
   0  -2   8  164.68  230.98
   0  -2   8  200.18   77.19
   0  -2   8 -164.68  131.59
  -1   2  -8  592.04  117.29
   1  -2   8  173.28  240.78
   1  -2   8  536.75  115.79
   1  -2   8  279.77  272.07
   1  -2   8 1066.89  224.08
   1  -2   8  401.46  152.88
   1  -2   8  569.24  119.39
   1  -2   8  633.14  230.58
  -2   2  -8  504.15  138.59
   2  -2   8  383.36  210.28
   2  -2   8  243.58  110.09
   2  -2   8   81.29   79.59
   2  -2   8   75.19  294.77
   2  -2   8 -325.97  266.37
   2  -2   8  234.68  120.69
   2   1  -8  280.07  121.69
   2   1  -8  100.59  127.79
  -2  -1   8  450.45  106.49
  -2  -1   8  228.88  108.29
   1   1  -8  425.86  146.69
   1   1  -8  221.68  176.88
  -1  -1   8  165.98   86.79
  -1  -1   8  260.57  135.89
  -1  -1   8  109.49   93.49
  -1  -1   8  168.78   81.49
  -1  -1   8  768.32  225.38
  -1  -1   8  183.38   85.79
  -1  -1   8  252.37  146.79
  -1  -1   8  171.78   85.09
   0   1  -8   46.40  118.89
   0   1  -8  126.59   87.39
   0  -1   8   31.40  158.58
   0  -1   8 -144.19  218.48
   0  -1   8   -5.80   45.70
   0  -1   8  -56.99  124.39
   0  -1   8   37.70   60.49
   0  -1   8   93.39   72.69
   0  -1   8  -28.90   71.59
   0  -1   8  -43.40   68.99
  -1   1  -8  204.98   97.79
   1  -1   8  -16.50  193.58
   1  -1   8  192.68   89.29
   1  -1   8  469.25  250.47
   1  -1   8  255.37   92.19
   1  -1   8  203.88  134.09
   1  -1   8  204.08   94.09
   1  -1   8  126.69  100.89
   1  -1   8  -15.30  160.68
  -2   1  -8  339.77  135.29
  -2   1  -8  269.37  154.18
  -2   1  -8   43.10  190.78
   2  -1   8  149.49  193.18
   2  -1   8  239.88  120.49
   2  -1   8  345.47  116.49
   2  -1   8  267.77  117.29
   2  -1   8  607.74  246.58
   2  -1   8  419.36  321.87
   3   0  -8  -38.40  119.79
   3   0  -8 -270.77  303.17
  -3   0   8 -106.19  151.38
  -3   0   8   60.89   97.09
  -3   0   8   63.79   97.39
  -3   0   8 -287.87  176.88
  -3   0   8  153.68  103.09
   2   0  -8  171.58  116.89
  -2   0   8  283.27  108.59
  -2   0   8  317.57  103.89
  -2   0   8  482.75  261.97
  -2   0   8  183.88  131.49
  -2   0   8  261.87  105.99
  -2   0   8  518.85  113.79
   1   0  -8  221.88  133.79
   1   0  -8  194.28  116.79
   1   0  -8  587.34  120.59
  -1   0   8  470.75  106.99
  -1   0   8  294.27  132.59
  -1   0   8  357.46  187.98
  -1   0   8  391.76  142.29
  -1   0   8  336.27   94.79
  -1   0   8  412.66  102.79
  -1   0   8  366.56  164.08
   0   0  -8  200.08  112.89
   0   0  -8  191.18  122.79
   0   0  -8  -49.80  120.79
   0   0  -8  311.37  101.89
   0   0   8  130.79   91.99
   0   0   8  339.27   97.99
   0   0   8  245.18  122.69
   0   0   8  119.09  148.49
   0   0   8   89.29   74.09
   0   0   8  346.37   95.69
   0   0   8  283.87  157.78
  -1   0  -8 -157.68  154.58
  -1   0  -8   90.99   82.39
  -1   0  -8  -40.50  116.79
   1   0   8  429.76  302.97
   1   0   8    7.40   44.10
   1   0   8    6.90   78.29
   1   0   8  160.78   87.49
   1   0   8 -124.59   75.59
   1   0   8 -113.19   72.09
  -2   0  -8  191.78  151.08
  -2   0  -8   93.89  109.69
  -2   0  -8  176.58  239.58
  -2   0  -8  209.68  207.28
   2   0   8  204.08  116.89
   2   0   8 -595.14  298.17
   2   0   8   -9.80   81.19
   2   0   8   92.29  102.79
   2   0   8 -105.79  231.48
   2   0   8  289.37  141.49
   3  -1  -8  226.08  135.39
  -3   1   8   29.40   98.49
  -3   1   8  169.88  108.39
  -3   1   8  295.27  184.08
  -3   1   8  -39.00   93.49
  -3   1   8    0.40  101.59
   2  -1  -8    1.80   67.49
   2  -1  -8   36.00  108.89
   2  -1  -8  129.19  119.99
   2  -1  -8  -73.09  144.59
   2  -1  -8   69.99  158.28
  -2   1   8   80.69   81.39
  -2   1   8  122.49   93.59
  -2   1   8  107.49   86.09
  -2   1   8   -2.10   87.99
  -2   1   8   -0.80   51.89
  -2   1   8 -122.29  230.68
   1  -1  -8  336.27  115.19
   1  -1  -8  392.86  176.28
   1  -1  -8  199.78  101.29
   1  -1  -8  232.48  137.29
  -1   1   8  451.75  107.79
  -1   1   8  380.66  140.89
  -1   1   8  382.26   99.49
  -1   1   8  417.26  123.79
  -1   1   8  385.66  179.38
  -1   1   8  -24.90  165.68
  -1   1   8  243.18  117.69
   0  -1  -8  557.04  124.29
   0  -1  -8  279.67  142.29
   0  -1  -8  641.74  135.19
   0   1   8  257.87  115.19
   0   1   8  498.05  110.19
   0   1   8  348.27  128.89
   0   1   8 -358.36  278.87
  -1  -1  -8  150.28  177.88
  -1  -1  -8   79.29  306.37
  -1  -1  -8  363.26  173.08
  -1  -1  -8  164.68  116.39
   1   1   8 -136.49  224.48
   1   1   8  145.09  116.99
   1   1   8   33.10   73.39
   1   1   8  211.28   98.79
   1   1   8  120.69  186.48
   1   1   8   43.80   91.39
   2  -2  -8  122.69  175.98
   2  -2  -8 -186.88  101.89
   2  -2  -8   26.30   82.99
   2  -2  -8   18.70  160.68
   2  -2  -8 -221.88  110.49
   2  -2  -8  -38.90  166.08
  -2   2   8  -97.99   91.79
  -2   2   8  -15.20   42.90
  -2   2   8   54.19   93.59
  -2   2   8   22.60   84.69
   1  -2  -8  221.38  131.79
   1  -2  -8  -28.80  135.59
   1  -2  -8  369.26  105.39
   1  -2  -8  301.17  111.29
  -1   2   8  -15.00  147.49
  -1   2   8  236.08   96.29
  -1   2   8  285.47  103.09
  -1   2   8  250.17  158.68
  -1   2   8  253.97  182.38
   0  -2  -8  345.57  134.89
   0  -2  -8  432.86  155.48
   0  -2  -8  278.07  111.29
   0  -2  -8  362.06  153.68
   0   2   8  103.49  198.48
   0   2   8   96.69  106.69
   0   2   8  335.27  104.69
   0   2   8  201.28  142.29
   0   2   8  413.86  161.58
   0   2   8  461.05  118.79
  -1  -2  -8  -16.80  228.38
  -1  -2  -8  470.15  145.29
  -1  -2  -8  359.86  112.49
   1   2   8  116.09  229.38
   1   2   8   46.50   88.19
   1   2   8  640.74  284.77
   1   2   8  134.69  102.99
   1   2   8  167.88  198.18
   2  -3  -8   67.29  192.18
   2  -3  -8   94.59  131.49
   2  -3  -8  323.17  123.39
   2  -3  -8  421.16  138.99
  -2   3   8   36.80   74.89
  -2   3   8  120.79  100.59
  -2   3   8  358.66  127.69
  -2   3   8  244.78  216.48
   1  -3  -8   99.39  113.69
   1  -3  -8  149.09   98.59
   1  -3  -8 -102.89  179.28
   1  -3  -8  243.58  179.88
   1  -3  -8  277.27  163.78
  -1   3   8   34.00   90.49
  -1   3   8   43.90   85.89
  -1   3   8  148.79  105.09
  -1   3   8  418.66  182.58
  -1   3   8  -19.90   90.09
   0  -3  -8  395.16  218.48
   0  -3  -8  -53.89  101.99
   0  -3  -8 -110.89  124.19
   0   3   8  173.98  122.09
   0   3   8   -2.70   66.89
   0   3   8   82.49  102.79
   0   3   8  -68.59  265.97
   0   3   8 -201.78  197.58
   0   3   8   39.00  119.69
   1   1  -9  357.06  195.18
   1   1  -9   33.50  134.59
  -1  -1   9   35.40   59.49
  -1  -1   9   58.19   96.89
  -1  -1   9  132.29  100.99
  -1  -1   9 -286.07  328.17
  -1  -1   9  -71.59   89.39
  -1  -1   9 -226.88  178.48
   0   1  -9   95.09  121.59
   0  -1   9  -30.30   83.99
   0  -1   9 -307.27  190.48
   0  -1   9  112.69   94.99
   0  -1   9 -230.98  234.58
   0  -1   9  207.68  106.49
   0  -1   9  201.28  102.69
   1   0  -9  281.17  121.89
   1   0  -9  277.17  280.87
  -1   0   9  236.88  202.48
  -1   0   9  225.38  209.78
   0   0  -9   32.90  225.68
   0   0  -9   -8.00  137.69
   0   0   9  126.49   94.39
   0   0   9  364.86  107.29
   0   0   9 -130.39  347.17
   0   0   9  368.56  120.79
   0   0   9  334.37  170.68
   0   0   9  -67.29  201.08
   0   0   0    0.00    0.00

_computing_structure_solution     'SHELXT 2018/2 (Sheldrick, 2018)'
;
_shelx_hkl_checksum              97753
_olex2_submission_special_instructions 'No special instructions were received'
loop_
_space_group_symop_operation_xyz
'x, y, z'
'-x, -y, -z'
loop_
_atom_site_label
_atom_site_type_symbol
_atom_site_fract_x
_atom_site_fract_y
_atom_site_fract_z
_atom_site_U_iso_or_equiv
_atom_site_adp_type
_atom_site_occupancy
_atom_site_site_symmetry_order
_atom_site_calc_flag
_atom_site_refinement_flags_posn
_atom_site_refinement_flags_adp
_atom_site_refinement_flags_occupancy
_atom_site_disorder_assembly
_atom_site_disorder_group
Sb1 Sb 0.3818(3) 0.5996(2) 0.29303(19) 0.0179(5) Uani 1 1 d . . . . .
B1 B 1.024(4) -0.050(3) 0.288(3) 0.010(4) Uani 1 1 d . U . . .
O4 O 0.350(3) 0.967(2) 0.2961(18) 0.016(3) Uani 1 1 d . . . . .
F1 F 0.537(3) 0.249(2) 0.0955(16) 0.024(3) Uani 1 1 d . . . . .
O3 O 0.826(3) 0.743(2) 0.2816(19) 0.023(3) Uani 1 1 d . U . . .
B2 B 0.610(5) 0.172(4) 0.278(3) 0.017(4) Uani 1 1 d . . . . .
O2 O 0.581(3) 0.346(2) 0.4222(19) 0.016(3) Uani 1 1 d . . . . .
O1 O 0.911(3) 0.130(2) 0.293(2) 0.025(3) Uani 1 1 d . . . . .
loop_
_atom_site_aniso_label
_atom_site_aniso_U_11
_atom_site_aniso_U_22
_atom_site_aniso_U_33
_atom_site_aniso_U_23
_atom_site_aniso_U_13
_atom_site_aniso_U_12
Sb1 0.0088(7) 0.0145(8) 0.0306(8) 0.0019(5) 0.0018(5) 0.0034(5)
B1 0.010(5) 0.008(6) 0.010(5) -0.001(4) 0.001(4) 0.000(4)
O4 0.007(6) 0.016(7) 0.025(7) 0.002(6) 0.000(5) 0.004(5)
F1 0.019(6) 0.027(7) 0.027(6) 0.003(5) 0.004(5) 0.006(5)
O3 0.024(5) 0.020(5) 0.021(5) 0.005(4) -0.001(4) -0.002(4)
B2 0.022(11) 0.012(12) 0.011(10) 0.002(8) 0.006(8) -0.006(9)
O2 0.004(5) 0.015(7) 0.030(7) 0.002(6) -0.001(5) 0.003(5)
O1 0.019(7) 0.010(8) 0.048(9) 0.000(6) 0.004(6) 0.009(6)
loop_
_atom_type_symbol
_atom_type_description
_atom_type_scat_dispersion_real
_atom_type_scat_dispersion_imag
_atom_type_scat_source
B B 0.0013 0.0007 'International Tables Vol C Tables 4.2.6.8 and 6.1.1.4'
F F 0.0171 0.0103 'International Tables Vol C Tables 4.2.6.8 and 6.1.1.4'
O O 0.0106 0.0060 'International Tables Vol C Tables 4.2.6.8 and 6.1.1.4'
Sb Sb -0.5866 1.5461 'International Tables Vol C Tables 4.2.6.8 and 6.1.1.4'
loop_
_geom_angle_atom_site_label_1
_geom_angle_atom_site_label_2
_geom_angle_atom_site_label_3
_geom_angle
_geom_angle_site_symmetry_1
_geom_angle_site_symmetry_3
_geom_angle_publ_flag
O3 Sb1 O4 80.9(5) . . ?
O3 Sb1 O2 92.7(5) . 2_666 ?
O3 Sb1 O2 82.6(5) . . ?
O2 Sb1 O4 83.5(5) 2_666 . ?
O2 Sb1 O4 149.7(5) . . ?
O2 Sb1 O2 72.0(5) 2_666 . ?
O3 B1 O4 116.9(16) 1_545 1_645 ?
O1 B1 O4 121.1(17) . 1_645 ?
O1 B1 O3 122.0(16) . 1_545 ?
B1 O4 Sb1 103.8(11) 1_465 . ?
B1 O4 B2 126.7(15) 1_465 1_565 ?
B2 O4 Sb1 128.8(11) 1_565 . ?
B1 O3 Sb1 139.5(13) 1_565 . ?
F1 B2 O4 106.4(15) . 1_545 ?
F1 B2 O2 104.9(16) . . ?
O2 B2 O4 108.6(14) . 1_545 ?
O1 B2 O4 111.3(17) . 1_545 ?
O1 B2 F1 111.3(15) . . ?
O1 B2 O2 113.8(16) . . ?
Sb1 O2 Sb1 108.0(5) 2_666 . ?
B2 O2 Sb1 113.1(11) . . ?
B2 O2 Sb1 138.3(12) . 2_666 ?
B1 O1 B2 136.2(16) . . ?
loop_
_geom_bond_atom_site_label_1
_geom_bond_atom_site_label_2
_geom_bond_distance
_geom_bond_site_symmetry_2
_geom_bond_publ_flag
Sb1 O4 2.362(13) . ?
Sb1 O3 1.920(14) . ?
Sb1 O2 1.991(13) 2_666 ?
Sb1 O2 2.204(12) . ?
B1 O4 1.39(2) 1_645 ?
B1 O3 1.37(2) 1_545 ?
B1 O1 1.35(2) . ?
O4 B2 1.50(2) 1_565 ?
F1 B2 1.43(2) . ?
B2 O2 1.49(2) . ?
B2 O1 1.39(3) . ?
loop_
_geom_torsion_atom_site_label_1
_geom_torsion_atom_site_label_2
_geom_torsion_atom_site_label_3
_geom_torsion_atom_site_label_4
_geom_torsion
_geom_torsion_site_symmetry_1
_geom_torsion_site_symmetry_2
_geom_torsion_site_symmetry_3
_geom_torsion_site_symmetry_4
_geom_torsion_publ_flag
O4 B1 O1 B2 176.2(18) 1_645 . . . ?
O4 B2 O2 Sb1 64(2) 1_545 . . 2_666 ?
O4 B2 O2 Sb1 -105.3(14) 1_545 . . . ?
O4 B2 O1 B1 13(3) 1_545 . . . ?
F1 B2 O2 Sb1 8.1(17) . . . . ?
F1 B2 O2 Sb1 177.8(10) . . . 2_666 ?
F1 B2 O1 B1 -106(2) . . . . ?
O3 B1 O1 B2 -6(3) 1_545 . . . ?
O2 B2 O1 B1 136(2) . . . . ?
O1 B2 O2 Sb1 130.1(14) . . . . ?
O1 B2 O2 Sb1 -60(2) . . . 2_666 ?
