#------------------------------------------------------------------------------
#$Date: 2024-02-04 13:24:27 +0200 (Sun, 04 Feb 2024) $
#$Revision: 289392 $
#$URL: file:///home/coder/svn-repositories/cod/cif/7/13/24/7132415.cif $
#------------------------------------------------------------------------------
#
# This file is available in the Crystallography Open Database (COD),
# http://www.crystallography.net/
#
# All data on this site have been placed in the public domain by the
# contributors.
#
data_7132415
loop_
_publ_author_name
'Zhang, Ruonan'
'Tudi, Abudukadi'
'Yang, Xia'
'Wang, Xuping'
'Yang, Zhihua'
'Han, Shujuan'
'Pan, Shilie'
_publ_section_title
;
 PbTeB<sub>4</sub>O<sub>9</sub>: a lead tellurium borate with
 unprecedented fundamental building block [B<sub>4</sub>O<sub>10</sub>]
 and large birefringence.
;
_journal_issue                   3
_journal_name_full               'Chemical communications (Cambridge, England)'
_journal_page_first              340
_journal_page_last               343
_journal_paper_doi               10.1039/d3cc05382b
_journal_volume                  60
_journal_year                    2024
_chemical_formula_moiety         'B4 O9 Pb Te'
_chemical_formula_sum            'B4 O9 Pb Te'
_chemical_formula_weight         522.03
_space_group_crystal_system      triclinic
_space_group_IT_number           2
_space_group_name_Hall           '-P 1'
_space_group_name_H-M_alt        'P -1'
_audit_creation_date             2023-07-25
_audit_creation_method
;
Olex2 1.2
(compiled 2018.05.29 svn.r3508 for OlexSys, GUI svn.r5506)
;
_audit_update_record
;
2023-10-22 deposited with the CCDC.	2023-11-28 downloaded from the CCDC.
;
_cell_angle_alpha                70.105(2)
_cell_angle_beta                 78.877(2)
_cell_angle_gamma                61.726(2)
_cell_formula_units_Z            2
_cell_length_a                   6.5740(3)
_cell_length_b                   6.7445(3)
_cell_length_c                   9.8903(5)
_cell_measurement_reflns_used    4804
_cell_measurement_temperature    273.15
_cell_measurement_theta_max      27.500
_cell_measurement_theta_min      3.711
_cell_volume                     362.88(3)
_computing_cell_refinement       'SAINT V8.40A (?, 2016)'
_computing_data_reduction        'SAINT V8.40A (?, 2016)'
_computing_molecular_graphics    'Olex2 (Dolomanov et al., 2009)'
_computing_publication_material  'Olex2 (Dolomanov et al., 2009)'
_computing_structure_refinement  'ShelXL (Sheldrick, 2015)'
_computing_structure_solution    'SHELXT 2014/5 (Sheldrick, 2014)'
_diffrn_ambient_temperature      273.15
_diffrn_measured_fraction_theta_full 0.985
_diffrn_measured_fraction_theta_max 0.985
_diffrn_measurement_device_type  'Bruker APEX-II CCD'
_diffrn_measurement_method       '\f and \w scans'
_diffrn_radiation_type           MoK\a
_diffrn_radiation_wavelength     0.71073
_diffrn_reflns_av_R_equivalents  0.0570
_diffrn_reflns_av_unetI/netI     0.0339
_diffrn_reflns_Laue_measured_fraction_full 0.985
_diffrn_reflns_Laue_measured_fraction_max 0.985
_diffrn_reflns_limit_h_max       8
_diffrn_reflns_limit_h_min       -8
_diffrn_reflns_limit_k_max       8
_diffrn_reflns_limit_k_min       -8
_diffrn_reflns_limit_l_max       12
_diffrn_reflns_limit_l_min       -12
_diffrn_reflns_number            10162
_diffrn_reflns_point_group_measured_fraction_full 0.985
_diffrn_reflns_point_group_measured_fraction_max 0.985
_diffrn_reflns_theta_full        25.242
_diffrn_reflns_theta_max         27.507
_diffrn_reflns_theta_min         2.191
_diffrn_standards_number         0
_exptl_absorpt_coefficient_mu    27.215
_exptl_absorpt_correction_T_max  0.2632
_exptl_absorpt_correction_T_min  0.1494
_exptl_absorpt_correction_type   multi-scan
_exptl_absorpt_process_details
'SADABS-2016/2 (Bruker,2016/2) was used for absorption correction. wR2(int) was 0.1424 before and 0.0606 after correction. The Ratio of minimum to maximum transmission is 0.5676. The \l/2 correction factor is Not present.'
_exptl_crystal_colour            'clear light colourless'
_exptl_crystal_colour_lustre     clear
_exptl_crystal_colour_modifier   light
_exptl_crystal_colour_primary    colourless
_exptl_crystal_density_diffrn    4.778
_exptl_crystal_description       block
_exptl_crystal_F_000             452
_exptl_crystal_size_max          0.169
_exptl_crystal_size_mid          0.11
_exptl_crystal_size_min          0.052
_refine_diff_density_max         1.292
_refine_diff_density_min         -1.220
_refine_diff_density_rms         0.225
_refine_ls_extinction_coef       0.0048(5)
_refine_ls_extinction_expression Fc^*^=kFc[1+0.001xFc^2^\l^3^/sin(2\q)]^-1/4^
_refine_ls_extinction_method     'SHELXL-2018/3 (Sheldrick 2018)'
_refine_ls_goodness_of_fit_ref   1.112
_refine_ls_hydrogen_treatment    undef
_refine_ls_matrix_type           full
_refine_ls_number_parameters     137
_refine_ls_number_reflns         1639
_refine_ls_number_restraints     0
_refine_ls_restrained_S_all      1.112
_refine_ls_R_factor_all          0.0225
_refine_ls_R_factor_gt           0.0214
_refine_ls_shift/su_max          0.001
_refine_ls_shift/su_mean         0.000
_refine_ls_structure_factor_coef Fsqd
_refine_ls_weighting_details
'w=1/[\s^2^(Fo^2^)+(0.0117P)^2^+1.1222P] where P=(Fo^2^+2Fc^2^)/3'
_refine_ls_weighting_scheme      calc
_refine_ls_wR_factor_gt          0.0473
_refine_ls_wR_factor_ref         0.0481
_reflns_Friedel_coverage         0.000
_reflns_number_gt                1577
_reflns_number_total             1639
_reflns_threshold_expression     'I > 2\s(I)'
_cod_data_source_file            d3cc05382b2.cif
_cod_data_source_block           1212_a
_cod_depositor_comments          'Adding full bibliography for 7132415.cif.'
_cod_original_cell_volume        362.89(3)
_cod_database_code               7132415
_shelx_shelxl_version_number     2018/3
_shelx_space_group_comment
;
The symmetry employed for this shelxl refinement is uniquely defined
by the following loop, which should always be used as a source of
symmetry information in preference to the above space-group names.
They are only intended as comments.
;
_shelx_estimated_absorpt_t_max   0.332
_shelx_estimated_absorpt_t_min   0.091
_olex2_refinement_description
;
;
_shelx_res_file
;
TITL 1212_a.res in P-1
    1212_a.res
    created by SHELXL-2018/3 at 19:30:46 on 25-Jul-2023
REM Old TITL 1212 in P1
REM SHELXT solution in P-1
REM R1 0.069, Rweak 0.013, Alpha 0.053, Orientation as input
REM Formula found by SHELXT: B B2 Pb Te
CELL 0.71073 6.574 6.7445 9.8903 70.105 78.877 61.726
ZERR 2 0.0003 0.0003 0.0005 0.002 0.002 0.002
LATT 1
SFAC B O Pb Te
UNIT 8 18 2 2
EQIV $1 1-X,-Y,1-Z
EQIV $2 1-X,1-Y,1-Z
EQIV $3 1-X,1-Y,-Z
EQIV $4 -1+X,+Y,+Z
EQIV $5 +X,1+Y,+Z
EQIV $6 1+X,+Y,+Z

L.S. 40
PLAN  2
SIZE 0.052 0.11 0.169
TEMP 0
BIND Pb1 O7_$3
BIND Pb1 O7_$5
BIND Pb1 O3_$3
BIND Pb1 O5_$6
BIND Te1 O4_$1
BIND Te1 O9_$2
BIND O5 Pb1_$4
CONF
LIST 4
MORE -1
fmap 2
acta
REM <olex2.extras>
REM <HklSrc "%.\\1212_a.hkl">
REM </olex2.extras>

WGHT    0.011700    1.122200
EXTI    0.004766
FVAR       0.45742
PB1   3    0.654194    0.574405    0.136776    11.00000    0.01266    0.01451 =
         0.01812   -0.00518   -0.00095   -0.00704
TE1   4    0.360648    0.336965    0.478570    11.00000    0.01410    0.01383 =
         0.01451   -0.00442   -0.00104   -0.00662
B1    1    0.144104    0.665864    0.211326    11.00000    0.01253    0.01285 =
         0.01885   -0.00365   -0.00173   -0.00878
B2    1    0.342628    0.233977    0.213801    11.00000    0.01061    0.01075 =
         0.01791   -0.00393   -0.00323   -0.00531
B3    1    0.763400   -0.004117    0.153285    11.00000    0.01469    0.01684 =
         0.01073   -0.00476   -0.00148   -0.00832
B4    1    0.081531    0.068805    0.179236    11.00000    0.01717    0.01086 =
         0.01012   -0.00098   -0.00161   -0.00992
O1    2    0.231476    0.847686    0.173981    11.00000    0.00892    0.01085 =
         0.02366   -0.00457   -0.00091   -0.00474
O2    2    0.109918    0.592729    0.369251    11.00000    0.01265    0.01127 =
         0.01715   -0.00418    0.00133   -0.00248
O3    2    0.317596    0.476888    0.153839    11.00000    0.00862    0.00744 =
         0.02246   -0.00685   -0.00219   -0.00315
O4    2    0.390333    0.139235    0.367720    11.00000    0.02308    0.01409 =
         0.01691   -0.00448   -0.00510   -0.00892
O5    2    0.129621    0.237556    0.185877    11.00000    0.00728    0.01157 =
         0.02517   -0.00544   -0.00109   -0.00559
O6    2   -0.154538    0.141576    0.170835    11.00000    0.00813    0.01107 =
         0.02866   -0.00801   -0.00284   -0.00434
O7    2    0.534791    0.076856    0.137540    11.00000    0.00936    0.01604 =
         0.02458   -0.01173    0.00094   -0.00623
O8    2    0.914488   -0.225742    0.151037    11.00000    0.00651    0.01243 =
         0.02487   -0.00739   -0.00291   -0.00231
O9    2    0.601376    0.414758    0.384221    11.00000    0.01814    0.02179 =
         0.01701   -0.00618   -0.00158   -0.01193
HKLF 4




REM  1212_a.res in P-1
REM wR2 = 0.0481, GooF = S = 1.112, Restrained GooF = 1.112 for all data
REM R1 = 0.0214 for 1577 Fo > 4sig(Fo) and 0.0225 for all 1639 data
REM 137 parameters refined using 0 restraints

END

WGHT      0.0118      1.1209

REM Highest difference peak  1.292,  deepest hole -1.220,  1-sigma level  0.225
Q1    1   0.6424  0.5504  0.2262  11.00000  0.05    1.29
Q2    1   0.3310  0.3204  0.5702  11.00000  0.05    1.22
;
_shelx_res_checksum              20691
_shelx_hkl_file
;
  -2   0   0  975.40   52.09
  -2   0   0  987.00   83.49
  -2   0   0  990.10   49.90
  -2   0   0  963.50   52.99
   2   0   0  979.50   84.29
   2   0   0  994.50   51.99
   2   0   0 1027.50   49.90
   2   0   0 1020.50   53.59
  -3   0   0 5094.99  242.38
  -3   0   0 5383.46  305.77
   3   0   0 5186.48  241.08
   3   0   0 5396.96  237.48
   3   0   0 5303.77  244.18
   3   0   0 5284.47  310.17
  -4   0   0 4760.62  224.38
  -4   0   0 4809.02  232.18
  -4   0   0 4813.42  228.38
  -4   0   0 4992.80  223.08
  -4   0   0 5038.00  312.27
   4   0   0 4844.22  223.78
   4   0   0 4929.91  233.38
   4   0   0 4860.81  230.68
  -5   0   0   -1.30    2.90
  -5   0   0    4.50    5.40
  -5   0   0   -4.80    7.10
  -5   0   0    1.60    4.20
  -5   0   0    3.70    4.70
   5   0   0   -1.00    5.70
   5   0   0    6.20    7.20
   5   0   0    4.20    4.80
   5   0   0   -1.50   15.20
  -6   0   0 1200.98   74.59
  -6   0   0 1125.29  147.79
  -6   0   0 1189.38   76.79
  -6   0   0 1330.77   72.59
   6   0   0 1263.27  165.28
   6   0   0 1199.78   73.59
   6   0   0 1270.47   81.59
   6   0   0 1326.87   86.99
  -7   0   0 1551.64  190.08
  -7   0   0 1449.15   88.09
  -7   0   0 1380.36   98.49
  -7   0   0 1498.95   82.99
   7   0   0 1260.57   84.49
   7   0   0 1085.09  215.48
   7   0   0 1511.25  101.39
   7   0   0 1518.25   96.69
   7  -1   0  701.63   62.39
   7  -1   0  553.54   52.79
   7  -1   0  341.67  165.58
   7  -1   0  704.43   65.59
  -7   1   0  492.75  132.19
  -7   1   0  774.22   48.60
  -7   1   0  711.53   54.39
  -7   1   0  645.44   67.29
   6  -1   0  140.59   24.90
   6  -1   0  145.39   29.20
   6  -1   0  206.58   92.69
   6  -1   0  177.98   32.80
  -6   1   0  137.49   23.90
  -6   1   0  129.19   69.99
  -6   1   0  160.78   18.30
   5  -1   0  878.11  170.48
   5  -1   0  932.51   68.19
   5  -1   0  858.51   63.49
   5  -1   0  871.61   57.19
  -5   1   0  819.92  192.08
  -5   1   0  998.30   91.39
  -5   1   0  886.01   80.79
  -5   1   0  950.00   53.59
  -5   1   0  898.01   57.19
   4  -1   0 4659.03  326.37
   4  -1   0 4922.31  231.78
   4  -1   0 4778.12  233.18
   4  -1   0 4821.02  223.18
  -4   1   0 4928.61  219.38
  -4   1   0 4605.24  314.97
  -4   1   0 4705.03  232.28
  -4   1   0 4817.72  223.18
  -4   1   0 4749.62  226.88
   3  -1   0 1389.46   80.89
   3  -1   0 1492.85   75.19
   3  -1   0 1458.05   81.19
  -3   1   0 1440.16   77.79
  -3   1   0 1329.37  128.69
  -3   1   0 1530.75   82.29
   2  -1   0  999.90   51.39
   2  -1   0  995.00   56.39
   2  -1   0  971.90   94.59
   2  -1   0  959.10   55.79
  -2   1   0  972.60   53.89
  -2   1   0 1071.19   95.19
  -2   1   0 1035.20   56.59
  -2   1   0  938.01   50.79
  -1  -1   0   19.30    4.60
  -1  -1   0   17.80    3.20
  -1  -1   0   18.20    3.70
   1   1   0   18.40    3.70
   1   1   0   12.10    7.40
   1   1   0   22.70    3.30
   2   1   0 7620.84  373.16
   3   1   0 9999.00  502.95
  -4  -1   0  405.76   31.30
  -4  -1   0  405.86   32.80
  -4  -1   0  420.56   29.80
  -4  -1   0  421.46   29.40
  -4  -1   0  529.05   98.99
   4   1   0  401.26   31.50
   4   1   0  395.46   32.70
   4   1   0  405.86   28.00
   4   1   0  744.73  124.69
  -5  -1   0 1737.43  163.18
  -5  -1   0 1811.32   91.79
  -5  -1   0 1701.23   98.19
  -5  -1   0 1668.23   94.59
  -5  -1   0 1713.53   90.59
   5   1   0 1708.03   89.39
   5   1   0 1730.13   95.89
   5   1   0 1489.35  158.68
   5   1   0 1786.52   99.39
  -6  -1   0 2987.00  254.37
  -6  -1   0 3294.17  172.98
  -6  -1   0 3239.28  158.28
  -6  -1   0 3206.18  164.48
  -6  -1   0 3239.08  160.48
   6   1   0 3134.09  268.17
   6   1   0 3374.96  171.78
   6   1   0 3064.19  157.38
   6   1   0 3195.18  165.98
  -7  -1   0  566.54   49.60
  -7  -1   0  616.14   56.79
  -7  -1   0  481.55  108.59
  -7  -1   0  669.33   46.90
  -7  -1   0  654.23   49.50
   7   1   0  468.55  120.79
   7   1   0  603.34   46.40
   7   1   0  632.54   56.99
   7   1   0  647.44   53.59
   6  -2   0   65.99   21.70
   6  -2   0  168.98   34.50
   6  -2   0   -8.80   21.50
   6  -2   0   85.59   23.90
  -6   2   0  124.19   23.00
  -6   2   0   34.70   34.30
  -6   2   0   54.99   21.70
   5  -2   0 1221.38  217.08
   5  -2   0 1012.50   74.59
   5  -2   0  972.50   72.79
   5  -2   0 1002.80   80.19
  -5   2   0 1017.10   64.19
  -5   2   0 1064.59  186.18
  -5   2   0  981.80   74.29
  -5   2   0 1008.40   56.69
   4  -2   0  692.93   45.20
   4  -2   0  414.66   97.89
   4  -2   0  721.63   53.99
   4  -2   0  693.03   53.49
  -4   2   0  671.63   44.30
  -4   2   0  445.26   91.99
   3  -2   0   47.30   17.00
   3  -2   0   81.69   36.30
   3  -2   0   85.69   17.60
   3  -2   0   74.19   14.00
  -3   2   0   79.59   13.40
  -3   2   0   93.59   46.90
  -3   2   0   65.19   17.00
   2  -2   0 2766.22  129.99
   2  -2   0 2827.02  202.98
   2  -2   0 2767.72  137.19
   2  -2   0 2795.92  138.49
  -2   2   0 2603.94  191.78
  -2   2   0 2803.12  138.09
  -2   2   0 2707.43  129.59
   1  -2   0 5672.43  261.17
  -1   2   0 5802.02  312.97
  -1   2   0 5787.72  262.57
   0  -2   0  301.27   18.40
   0  -2   0  337.77   22.80
   0  -2   0  304.97   18.50
   0   2   0  285.37   16.80
   0   2   0  325.77   23.00
   0   2   0  273.07   44.10
  -1  -2   0 1625.74   83.69
  -1  -2   0 1824.82   88.69
  -1  -2   0 1706.33   81.39
  -1  -2   0 1893.91  110.39
   1   2   0 1870.71   80.39
   1   2   0 1753.32   81.29
   1   2   0 1622.44  110.39
   1   2   0 1804.02   81.49
  -2  -2   0 6798.82  342.27
  -3  -2   0 1109.39   57.49
  -3  -2   0 1072.19   55.09
  -3  -2   0 1075.59   60.19
  -3  -2   0  921.01   88.99
   3   2   0 1084.79   59.89
   3   2   0 1092.59   60.99
   3   2   0 1066.59   56.09
  -4  -2   0  793.52   50.69
  -4  -2   0  840.32   49.30
  -4  -2   0  842.72   52.29
  -4  -2   0  739.83   87.69
  -4  -2   0  800.32   51.09
   4   2   0  855.01   92.99
   4   2   0  821.82   52.29
   4   2   0  876.01   46.30
  -5  -2   0 3213.88  165.08
  -5  -2   0 3210.38  163.48
  -5  -2   0 3295.37  159.28
  -5  -2   0 3426.66  161.38
  -5  -2   0 3355.86  241.28
   5   2   0 3180.88  238.28
   5   2   0 3249.18  156.38
   5   2   0 3539.35  167.08
   5   2   0 3313.37  166.68
  -6  -2   0 1699.73   92.99
  -6  -2   0 1716.73   93.39
  -6  -2   0 1713.93   97.79
  -6  -2   0 1566.64  167.38
  -6  -2   0 1701.53  100.79
   6   2   0 1580.04   89.19
   6   2   0 1780.52   99.89
   6   2   0 1776.12  102.29
  -7  -2   0   49.70   17.60
  -7  -2   0   27.00   13.40
  -7  -2   0   61.89   15.10
  -7  -2   0   22.60   31.00
  -7  -2   0   37.60   12.20
   7   2   0   27.70   32.10
   7   2   0   44.20   16.50
   7   2   0   54.69   19.80
   7   2   0   45.40   13.80
  -8  -2   0 1080.89   73.19
  -8  -2   0 1113.79   78.39
  -8  -2   0  980.20  174.78
  -8  -2   0 1197.48   73.29
  -8  -2   0 1091.29   83.09
   8   2   0 1214.98   87.29
   8   2   0  815.62  159.58
   8   2   0  959.20   68.69
   5  -3   0  366.56   36.90
   5  -3   0  404.86   57.29
  -5   3   0  499.05   39.50
  -5   3   0  322.27  104.29
  -5   3   0  383.06   45.70
   4  -3   0  153.68   28.40
   4  -3   0  166.68   26.50
   4  -3   0  196.68   36.90
  -4   3   0  141.69   22.30
  -4   3   0  144.69   30.00
  -4   3   0  120.29   50.49
   3  -3   0  211.28   21.50
   3  -3   0  211.28   34.80
   3  -3   0  179.98   28.40
  -3   3   0  246.38   78.39
  -3   3   0  188.18   19.30
  -3   3   0  202.88   31.70
   2  -3   0 1852.61  103.59
   2  -3   0 1958.80  105.89
   2  -3   0 1926.41   96.79
  -2   3   0 1927.11   95.19
  -2   3   0 1856.51  105.29
  -2   3   0 1833.92  321.57
   1  -3   0  361.46   25.20
   1  -3   0  330.37   28.80
   1  -3   0  368.76   30.20
  -1   3   0  349.96   30.40
  -1   3   0  404.16   76.59
  -1   3   0  368.26   24.30
  -1   3   0  330.67   64.29
   0  -3   0  121.29   11.80
   0  -3   0  126.69   14.70
   0   3   0  114.89   33.80
   0   3   0  152.08   42.90
   0   3   0   93.39   16.80
  -1  -3   0 2142.69  106.59
  -1  -3   0 2078.39  107.99
  -1  -3   0 2133.39  101.79
  -1  -3   0 2246.68  134.29
   1   3   0 2263.97  101.09
   1   3   0 1854.31  142.09
   1   3   0 2232.38   99.69
   1   3   0 2315.07  103.99
  -2  -3   0 4152.38  195.68
  -2  -3   0 3935.41  226.28
  -2  -3   0 3606.44  178.68
   2   3   0 3754.32  219.98
   2   3   0 3839.42  177.08
   2   3   0 4104.49  175.08
   2   3   0 3908.41  174.08
  -3  -3   0  264.77   21.70
  -3  -3   0  236.98   20.20
  -3  -3   0  250.27   19.60
  -3  -3   0  253.17   55.29
   3   3   0  241.98   19.90
   3   3   0  220.48   16.20
   3   3   0  257.97   20.30
   3   3   0  328.87   61.49
  -4  -3   0 2665.73  133.69
  -4  -3   0 2706.93  132.29
  -4  -3   0 2863.21  138.99
  -4  -3   0 2752.72  194.98
  -4  -3   0 2673.33  129.79
   4   3   0 2720.63  186.08
   4   3   0 2670.83  126.19
  -5  -3   0 2706.73  202.28
  -5  -3   0 2493.35  123.49
  -5  -3   0 2377.36  129.59
  -5  -3   0 2427.56  128.29
  -5  -3   0 2499.55  125.69
   5   3   0 2379.76  118.89
   5   3   0 2639.64  132.09
  -6  -3   0  332.77   29.20
  -6  -3   0  385.06   87.19
  -6  -3   0  328.67   29.80
  -6  -3   0  334.97   32.90
  -6  -3   0  292.17   31.50
   6   3   0  272.87   77.09
   6   3   0  330.17   34.00
   6   3   0  300.97   25.50
  -7  -3   0  783.12  154.98
  -7  -3   0  709.53   52.19
  -7  -3   0  753.82   58.99
  -7  -3   0  704.63   56.89
  -7  -3   0  764.72   53.99
   7   3   0  681.33   47.80
   7   3   0  833.92   62.49
   7   3   0  819.92  159.38
  -8  -3   0 1076.09  187.78
  -8  -3   0 1030.30   93.09
  -8  -3   0 1279.07   79.59
  -8  -3   0 1251.47   78.59
  -8  -3   0 1193.58   85.39
   8   3   0 1029.90  194.48
   8   3   0 1227.28   88.29
   8   3   0 1145.29   73.09
   4  -4   0    0.30    7.00
   4  -4   0   12.30   10.00
   4  -4   0   -2.80    7.40
  -4   4   0    9.20   11.70
  -4   4   0   -4.40   11.80
  -4   4   0    9.40   22.60
  -4   4   0   10.40    9.00
   3  -4   0  270.77   31.50
   3  -4   0  258.27   41.50
   3  -4   0  212.48   24.30
  -3   4   0  241.48   23.50
  -3   4   0  170.08   63.19
  -3   4   0  198.68   40.10
  -3   4   0  389.96  168.08
   2  -4   0  470.95   35.50
   2  -4   0  527.25   42.80
   2  -4   0  446.86   41.40
  -2   4   0  489.35   34.00
  -2   4   0  384.26   91.09
  -2   4   0  465.25   42.70
  -2   4   0  638.84  115.39
   1  -4   0   22.90   10.20
   1  -4   0    8.80    7.70
   1  -4   0   10.30    6.60
  -1   4   0   17.80   19.90
  -1   4   0   17.10    6.60
  -1   4   0    5.70    8.00
   0  -4   0  952.70   57.19
   0   4   0  911.51   95.29
   0   4   0  833.62   93.89
   0   4   0  847.82   56.59
  -1  -4   0 1607.24   78.79
  -1  -4   0 1600.64   79.09
   1   4   0 1518.35   75.09
   1   4   0 1495.05   73.69
   1   4   0 1501.65  130.99
   1   4   0 1507.25   79.39
  -2  -4   0  273.07   25.60
  -2  -4   0  279.37   26.00
  -2  -4   0  384.76   65.09
   2   4   0  264.37   17.90
   2   4   0  264.07   20.50
   2   4   0  295.17   19.50
   2   4   0  266.37   60.59
  -3  -4   0  513.95   68.49
  -3  -4   0  463.45   32.20
  -3  -4   0  449.06   33.30
   3   4   0  439.46   31.10
   3   4   0  484.05   28.70
   3   4   0  445.36   26.80
   3   4   0  491.55   62.29
  -4  -4   0 2162.28  109.39
  -4  -4   0 2017.10  167.88
  -4  -4   0 2140.19  110.29
   4   4   0 2063.49  100.79
   4   4   0 2238.28  107.19
   4   4   0 2164.98  109.09
   4   4   0 2093.89  157.28
  -5  -4   0  932.61   58.69
  -5  -4   0 1019.80  114.89
  -5  -4   0  969.40   56.79
  -5  -4   0  944.21   59.19
  -5  -4   0  850.21   62.19
   5   4   0  931.71   51.79
   5   4   0  787.42   96.69
  -6  -4   0  274.97   26.80
  -6  -4   0  294.97   30.20
  -6  -4   0  323.77   82.49
  -6  -4   0  289.57   28.60
   6   4   0  214.48   62.69
   6   4   0  270.17   30.60
  -7  -4   0 1362.56   93.99
  -7  -4   0 1233.98  154.98
  -7  -4   0 1302.87   80.09
  -7  -4   0 1329.17   86.09
  -7  -4   0 1244.78   81.99
   7   4   0 1125.69   69.89
   7   4   0 1314.17   85.39
  -8  -4   0  688.23   60.69
  -8  -4   0  794.42   57.49
  -8  -4   0  653.23   58.39
  -8  -4   0  758.52   55.59
  -8  -4   0  447.56  114.79
   8   4   0  522.35  125.29
   8   4   0  742.63   62.39
   8   4   0  657.83   48.70
   3  -5   0  101.99   22.00
   3  -5   0   68.69   22.40
   3  -5   0  107.29   27.10
  -3   5   0   56.69   45.60
  -3   5   0   38.10   30.10
  -3   5   0  103.89   19.50
  -3   5   0   68.69   24.60
   2  -5   0   37.20   12.00
   2  -5   0   49.20   16.30
   2  -5   0   46.20   17.80
  -2   5   0   39.60   11.60
  -2   5   0   58.19   43.60
  -2   5   0   31.00   29.50
  -2   5   0   56.39   20.00
   1  -5   0   67.49   17.60
   1  -5   0   74.89   16.10
   1  -5   0   63.59   17.30
  -1   5   0   57.59   37.90
  -1   5   0   50.19   11.20
  -1   5   0   23.40   25.20
   0  -5   0  326.77   32.00
   0  -5   0  346.57   28.80
   0   5   0  389.16   26.30
   0   5   0  349.57   36.20
   0   5   0  358.36   82.09
   0   5   0  431.36   93.79
  -1  -5   0  454.15   36.90
  -1  -5   0  491.85   33.30
  -1  -5   0  420.56   32.40
   1   5   0  446.76   28.70
   1   5   0  525.15   98.69
   1   5   0  438.56   27.70
   1   5   0  420.46   32.00
  -2  -5   0  228.78   64.79
  -2  -5   0  227.28   24.50
   2   5   0  194.88   15.20
   2   5   0  170.78   15.90
   2   5   0  178.38   54.49
   2   5   0  189.28   17.50
  -3  -5   0  608.84   40.90
  -3  -5   0  598.14   73.19
  -3  -5   0  540.75   43.50
  -3  -5   0  592.04   45.10
   3   5   0  594.94   34.00
   3   5   0  631.74   40.10
   3   5   0  742.03   84.89
   3   5   0  599.34   34.00
  -4  -5   0  799.72   57.19
  -4  -5   0  811.22  100.29
  -4  -5   0  856.91   56.79
   4   5   0  905.21   48.50
   4   5   0  884.91   54.59
   4   5   0  965.50   98.99
  -5  -5   0   61.89   15.90
  -5  -5   0   33.10   33.30
  -5  -5   0   45.90   18.10
  -5  -5   0   55.29   13.90
  -5  -5   0   69.89   15.00
   5   5   0   53.19   11.60
  -6  -5   0  352.56   32.20
  -6  -5   0  299.77   43.30
  -6  -5   0  370.06   34.00
  -6  -5   0  356.06   95.19
  -6  -5   0  334.87   32.50
   6   5   0  319.87   24.90
   6   5   0  235.58   67.59
   6   5   0  339.07   30.60
  -7  -5   0  696.83   50.69
  -7  -5   0  585.94   54.79
  -7  -5   0  728.73  144.19
  -7  -5   0  661.83   52.89
  -7  -5   0  635.24   50.79
   7   5   0  604.24   41.40
   7   5   0  471.25  106.99
   7   5   0  683.83   51.29
  -8  -5   0  100.39   26.80
  -8  -5   0  123.49   36.70
  -8  -5   0  160.18   27.90
  -8  -5   0  143.69   28.40
   8   5   0  118.09   72.89
   8   5   0  113.09   23.50
   2  -6   0  117.09   32.50
   2  -6   0   80.09   19.90
   2  -6   0  138.79   27.50
  -2   6   0  124.29   21.40
  -2   6   0   55.89   22.60
   1  -6   0   -1.10    7.10
   1  -6   0   -2.00    4.10
   1  -6   0   -7.20    3.90
  -1   6   0    5.00   26.80
  -1   6   0   -2.40    5.80
  -1   6   0    6.80   20.70
  -1   6   0    0.00    4.10
   0  -6   0  194.28   22.90
   0   6   0  194.68   18.50
   0   6   0  168.18   61.59
   0   6   0  230.78   41.40
   0   6   0  159.38   60.89
  -1  -6   0   99.69   20.10
  -1  -6   0  114.49   23.10
   1   6   0  144.89   14.10
   1   6   0  158.68   65.19
  -2  -6   0  199.28   21.20
  -2  -6   0  164.18   27.40
  -2  -6   0  149.09   25.00
   2   6   0  205.08   63.89
   2   6   0  166.98   14.70
   2   6   0  186.68   18.30
  -3  -6   0  162.38   27.40
  -3  -6   0  198.98   21.90
  -3  -6   0  190.38   51.09
  -3  -6   0  235.38   33.60
   3   6   0  222.48   66.49
   3   6   0  168.28   18.80
   3   6   0  174.48   14.80
  -4  -6   0  309.17   29.20
  -4  -6   0  371.16   35.60
  -4  -6   0  365.86   77.69
  -4  -6   0  320.57   33.10
   4   6   0  303.67   28.40
   4   6   0  285.07   70.29
   4   6   0  312.37   21.70
  -5  -6   0   37.50   29.00
  -5  -6   0   51.49   16.00
  -5  -6   0   53.29   15.40
  -5  -6   0   57.29   16.00
   5   6   0   54.69   29.90
   5   6   0   57.19   11.20
  -6  -6   0  209.78   38.00
  -6  -6   0  189.78   30.20
  -6  -6   0  134.59   31.30
  -6  -6   0  273.47   86.09
  -6  -6   0  160.28   25.90
   6   6   0  107.39   53.59
   6   6   0  164.58   17.80
   6   6   0  152.68   15.70
  -7  -6   0  179.98   73.19
  -7  -6   0  212.78   33.00
  -7  -6   0  275.47   30.70
  -7  -6   0  203.68   39.50
  -7  -6   0  249.88   29.70
   7   6   0  161.48   63.29
   7   6   0  211.58   23.70
   0  -7   0  253.47   30.20
   0  -7   0  286.37   33.30
   0  -7   0  192.68   35.70
   0   7   0  288.37   24.30
   0   7   0  257.77   83.49
   0   7   0  217.98   32.20
   0   7   0  248.88   83.19
  -1  -7   0  268.37   31.20
  -1  -7   0  252.37   28.90
   1   7   0  350.66   98.49
   1   7   0  229.28   20.40
   1   7   0  266.17   25.20
   1   7   0  117.99   53.19
  -2  -7   0    8.00    8.50
  -2  -7   0   14.40    9.90
  -2  -7   0    7.10    8.60
   2   7   0    3.30    5.20
   2   7   0    2.30    3.80
   2   7   0   12.50   22.10
   2   7   0    8.80   18.00
   2   7   0    1.20    4.00
  -3  -7   0  196.28   31.90
  -3  -7   0  188.38   30.40
  -3  -7   0  199.18   24.30
   3   7   0  118.89   47.50
   3   7   0  177.48   20.80
  -4  -7   0  230.58   36.60
  -4  -7   0  245.78   27.80
  -4  -7   0  254.07   38.80
  -4  -7   0  279.87   63.59
   4   7   0  210.98   64.09
  -5  -7   0   46.00   29.00
  -5  -7   0   38.50   15.10
  -5  -7   0   86.69   23.10
  -5  -7   0   67.09   19.40
   5   7   0   37.10    7.70
   5   7   0   44.20   29.50
  -6  -7   0  103.99   23.60
  -6  -7   0  100.59   23.00
  -6  -7   0  128.09   57.49
  -6  -7   0   57.59   24.30
  -6  -7   0  116.69   24.10
   6   7   0   74.99   11.40
   6   7   0   82.69   13.10
   6   7   0   64.59   41.70
  -7  -7   0  107.59   24.20
  -7  -7   0   93.19   22.60
  -7  -7   0  106.89   23.90
  -7  -7   0   56.49   25.20
   7   7   0   92.29   14.30
   7   7   0  102.69   16.10
   7   7   0  135.89   60.89
  -2  -8   0   69.19   21.30
  -2  -8   0   68.59   19.20
   2   8   0   45.70   38.70
   2   8   0   61.59   47.00
   2   8   0   36.10    9.70
  -3  -8   0  384.76   39.50
  -3  -8   0  368.36   40.60
  -3  -8   0  366.96   36.90
   3   8   0  335.07   85.79
   3   8   0  459.85  132.69
  -4  -8   0  310.17   35.90
  -4  -8   0  308.57   44.90
  -4  -8   0  283.57   47.30
   4   8   0  234.78   78.99
  -5  -8   0   13.10   13.30
  -5  -8   0    8.10   10.60
  -5  -8   0   12.20   10.70
  -5  -8   0    8.30   17.90
   5   8   0   14.30   26.60
   6   7  -1  505.55   96.59
  -6  -7   1  589.94   48.30
  -6  -7   1  531.05  100.79
  -6  -7   1  403.86   58.39
  -6  -7   1  628.64   50.29
  -6  -7   1  463.05   41.40
   5   7  -1  106.09   42.00
  -5  -7   1  143.69   24.90
  -5  -7   1  202.68   53.99
  -5  -7   1  138.79   26.90
  -5  -7   1  141.59   33.40
   4   7  -1 1111.19  119.39
  -4  -7   1 1148.29   75.09
  -4  -7   1 1092.69  109.49
  -4  -7   1 1090.69   71.99
  -4  -7   1 1104.49   71.19
  -3  -7   1 1132.69   72.89
  -3  -7   1 1274.17   77.09
  -3  -7   1 1181.48   75.79
   2   7  -1   14.20   24.00
   2   7  -1   20.30   22.30
  -2  -7   1    7.60    8.80
  -2  -7   1   34.00   11.90
   1   7  -1  527.15  112.29
  -1  -7   1  508.85   52.19
   0   7  -1  658.73  124.59
   0   7  -1  485.05   39.40
   0   7  -1  642.74   38.50
   0   7  -1  572.04  122.49
   0  -7   1  546.45   47.80
   0  -7   1  494.55   44.90
   0  -7   1  670.93   56.99
   7   6  -1 1105.29   65.19
   7   6  -1 1244.88   66.69
   7   6  -1 1344.17  142.69
  -7  -6   1 1076.59  139.29
  -7  -6   1 1222.18   78.59
  -7  -6   1 1267.57   78.99
  -7  -6   1 1230.98   80.69
  -7  -6   1 1116.69   86.19
   6   6  -1   -2.40   11.30
  -6  -6   1    1.00    7.20
  -6  -6   1    3.90    7.50
  -6  -6   1   -0.90    7.00
  -6  -6   1    3.40    7.10
  -6  -6   1   13.70   18.80
   5   6  -1 1055.99  106.49
  -5  -6   1 1160.58   72.69
  -5  -6   1 1045.20  111.99
  -5  -6   1 1102.19   67.69
  -5  -6   1 1094.99   70.19
   4   6  -1 2396.06  169.58
  -4  -6   1 2317.87  127.29
  -4  -6   1 2280.37  123.39
  -4  -6   1 2450.35  125.59
  -4  -6   1 2391.86  164.78
   3   6  -1  457.35   83.89
  -3  -6   1  448.66   37.40
  -3  -6   1  433.16   35.40
  -3  -6   1  537.85   41.40
  -3  -6   1  441.16   55.59
   2   6  -1 1252.77  122.59
   2   6  -1 1120.19  135.19
   2   6  -1 1153.88   64.89
  -2  -6   1 1144.29   68.19
  -2  -6   1 1155.88   70.49
  -2  -6   1 1243.08   72.69
   1   6  -1 1876.91   88.39
   1   6  -1 2044.40  164.18
   1   6  -1 1847.62  169.98
  -1  -6   1 1674.53   98.99
  -1  -6   1 1877.11  102.89
   0   6  -1  760.32   42.60
   0   6  -1  659.83   47.50
   0   6  -1  690.03  124.39
   0   6  -1  580.44  108.09
   0  -6   1  750.52   54.19
   0  -6   1  696.03   49.90
   0  -6   1  810.92   60.49
  -1   6  -1   42.00   14.90
  -1   6  -1   29.10   30.90
  -1   6  -1   58.39   38.60
  -1   6  -1   46.70   11.30
   1  -6   1   30.60   13.30
   1  -6   1   45.40   16.40
   1  -6   1   68.39   20.50
  -2   6  -1 1096.59  180.68
  -2   6  -1  927.51   58.49
   2  -6   1 1017.90   71.79
   2  -6   1  902.01   64.49
   2  -6   1  936.31   76.49
   8   5  -1  992.20   66.09
  -8  -5   1 1171.78   78.19
  -8  -5   1 1169.88   75.89
   7   5  -1  167.48   25.50
   7   5  -1  118.09   17.60
   7   5  -1   74.69   43.50
  -7  -5   1  135.69   25.90
  -7  -5   1  128.29   29.50
  -7  -5   1   69.89   45.40
  -7  -5   1  141.99   24.80
  -7  -5   1  124.99   25.40
   6   5  -1  994.80   57.59
   6   5  -1 1036.50  115.49
   6   5  -1 1052.59   59.89
  -6  -5   1 1006.40   66.79
  -6  -5   1 1011.10  123.39
  -6  -5   1 1010.70   72.99
  -6  -5   1 1024.20   65.19
  -6  -5   1  988.70   64.79
   5   5  -1 2875.21  197.48
   5   5  -1 2880.31  131.19
  -5  -5   1 2869.81  143.79
  -5  -5   1 2826.72  140.39
  -5  -5   1 2780.12  140.49
  -5  -5   1 2424.76  156.78
  -5  -5   1 2717.63  208.78
   4   5  -1 1257.47  107.29
   4   5  -1 1191.48   58.49
   4   5  -1 1209.68   59.09
  -4  -5   1 1215.58  113.49
  -4  -5   1 1247.98   70.39
  -4  -5   1 1254.47   71.79
  -4  -5   1 1189.08   70.99
   3   5  -1  374.76   66.59
   3   5  -1  410.06   30.80
  -3  -5   1  443.66   53.69
  -3  -5   1  412.46   34.00
  -3  -5   1  404.76   31.20
  -3  -5   1  396.66   32.30
   2   5  -1 3256.67  205.28
   2   5  -1 2925.91  141.59
  -2  -5   1 3020.10  148.69
  -2  -5   1 2857.91  144.99
   1   5  -1 2841.32  199.68
   1   5  -1 3048.50  137.59
   1   5  -1 3013.80  141.29
   1   5  -1 3148.28  145.99
   1   5  -1 3115.89  217.78
  -1  -5   1 3093.19  150.48
  -1  -5   1 2826.82  144.99
   0   5  -1   19.10   22.70
   0   5  -1   36.60    7.80
   0   5  -1   16.80   20.00
   0  -5   1   16.10    8.60
  -1   5  -1 1718.83  164.08
  -1   5  -1 1655.53  103.99
  -1   5  -1 2036.50   94.29
   1  -5   1 1900.81  105.29
   1  -5   1 1804.92   98.29
   1  -5   1 1917.61  110.09
  -2   5  -1 1734.53  106.59
  -2   5  -1 1686.63  172.28
  -2   5  -1 1798.52  173.58
   2  -5   1 1616.54   95.29
   2  -5   1 1765.02  103.79
   2  -5   1 1997.30  114.29
  -3   5  -1  241.38   24.70
  -3   5  -1  115.99   53.89
  -3   5  -1  184.58   35.80
  -3   5  -1  171.48   66.79
   3  -5   1  223.88   40.40
   3  -5   1  191.38   33.40
   3  -5   1  229.08   26.70
   8   4  -1  274.07   61.49
   8   4  -1  463.15  160.28
   8   4  -1  348.07   54.99
  -8  -4   1  290.67   44.20
  -8  -4   1  316.97   37.30
  -8  -4   1  337.87   35.70
  -8  -4   1  301.67   32.90
   7   4  -1  113.09   52.39
   7   4  -1  186.38   19.90
   7   4  -1  179.98   32.80
  -7  -4   1  176.58   31.80
  -7  -4   1  237.18   79.59
  -7  -4   1  212.08   25.50
  -7  -4   1  199.08   30.60
  -7  -4   1  173.18   26.40
   6   4  -1 1337.57   77.99
   6   4  -1 1105.69  126.49
  -6  -4   1 1197.28  138.89
  -6  -4   1 1354.36   78.49
  -6  -4   1 1251.37   76.79
  -6  -4   1 1232.08   80.59
   5   4  -1 2966.60  135.99
   5   4  -1 2904.01  142.99
  -5  -4   1 2894.61  143.09
  -5  -4   1 2935.21  145.59
  -5  -4   1 2801.12  152.18
  -5  -4   1 3019.70  147.59
   4   4  -1   16.40   13.60
   4   4  -1    8.90    4.90
   4   4  -1    7.30    3.40
  -4  -4   1   15.80   17.70
  -4  -4   1   12.90    6.40
  -4  -4   1    9.00    6.30
  -4  -4   1    2.50    5.10
   3   4  -1 3639.14  169.98
   3   4  -1 3817.52  219.48
   3   4  -1 3885.11  170.98
  -3  -4   1 4067.29  231.48
  -3  -4   1 3799.02  180.48
  -3  -4   1 3964.20  181.88
   2   4  -1 3988.80  185.98
   2   4  -1 4428.16  241.68
   2   4  -1 4366.06  193.98
  -2  -4   1 4333.67  227.08
  -2  -4   1 4072.19  194.78
  -2  -4   1 4187.78  193.98
  -2  -4   1 4322.57  199.08
   1   4  -1  659.83   36.60
   1   4  -1  583.74   71.79
   1   4  -1  675.73   36.90
   1   4  -1  682.13   34.10
  -1  -4   1  682.23   42.50
  -1  -4   1  618.54   37.90
  -1  -4   1  641.94   38.60
   0   4  -1 2025.10  104.99
   0   4  -1 2024.10   95.99
   0   4  -1 2055.39  154.58
   0   4  -1 1936.61  150.58
   0  -4   1 2097.69  100.49
   0  -4   1 2047.70  105.39
  -1   4  -1 3531.25  237.88
  -1   4  -1 3491.85  243.38
   1  -4   1 3545.05  172.28
   1  -4   1 3789.52  179.88
   1  -4   1 3878.21  184.68
  -2   4  -1 1237.38  134.49
  -2   4  -1 1330.17   70.89
   2  -4   1 1325.77   73.99
   2  -4   1 1360.86   85.39
   2  -4   1 1249.57   78.79
  -3   4  -1  247.68   80.89
  -3   4  -1  105.39   24.90
  -3   4  -1  147.09   21.30
  -3   4  -1  147.19   52.59
   3  -4   1  119.09   28.10
   3  -4   1  130.19   36.10
   3  -4   1  119.49   25.40
  -4   4  -1 1166.38  151.48
  -4   4  -1 1274.87   95.99
  -4   4  -1 1054.89  183.38
  -4   4  -1 1431.46   79.89
   4  -4   1 1330.47   96.39
   4  -4   1 1526.45   94.09
   4  -4   1 1281.07   81.99
   8   3  -1    0.20   15.90
   8   3  -1    6.40    7.90
   8   3  -1   -1.70    8.90
  -8  -3   1    0.00    5.70
  -8  -3   1    3.10    8.40
  -8  -3   1    1.40    8.70
  -8  -3   1    9.90    8.30
  -8  -3   1    6.20   32.60
   7   3  -1  647.94  137.99
   7   3  -1  952.10   59.49
   7   3  -1 1020.70   71.79
  -7  -3   1 1076.49  181.98
  -7  -3   1 1140.79   72.29
  -7  -3   1  976.60   66.19
  -7  -3   1 1007.00   68.69
   6   3  -1 2239.48  124.99
  -6  -3   1 2379.66  124.59
  -6  -3   1 2264.57  118.19
  -6  -3   1 2347.97  203.68
  -6  -3   1 2318.07  122.29
  -6  -3   1 2259.07  123.89
   5   3  -1  182.78   54.29
  -5  -3   1  229.28   30.50
  -5  -3   1  290.67   72.89
  -5  -3   1  223.48   23.00
  -5  -3   1  201.78   22.00
   4   3  -1 1420.66  118.79
   4   3  -1 1515.35   78.69
   4   3  -1 1462.95   70.79
  -4  -3   1 1439.26   78.79
  -4  -3   1 1526.95  128.89
  -4  -3   1 1419.06   74.39
  -4  -3   1 1453.05   77.59
  -4  -3   1 1414.06   81.59
   3   3  -1 4054.99  214.18
   3   3  -1 3820.72  169.38
   3   3  -1 3672.13  165.68
  -3  -3   1 3424.26  217.38
  -3  -3   1 3708.13  172.48
  -3  -3   1 3702.93  173.98
   2   3  -1 3601.04  163.08
   2   3  -1 3455.45  193.28
  -2  -3   1 3525.85  163.18
  -2  -3   1 3469.35  162.48
  -2  -3   1 3738.63  219.18
   1   3  -1  211.28   14.90
   1   3  -1  218.98   14.50
   1   3  -1  206.08   12.30
  -1  -3   1  198.98   14.90
  -1  -3   1  224.48   30.10
  -1  -3   1  183.78   16.90
  -1  -3   1  191.08   14.90
   0   3  -1 5027.10  265.17
   0   3  -1 4724.83  222.18
   0   3  -1 4826.52  214.08
   0   3  -1 4777.32  265.17
   0  -3   1 4863.41  221.38
  -1   3  -1 2637.24  173.78
  -1   3  -1 2605.84  181.78
  -1   3  -1 2541.45  130.69
   1  -3   1 2682.03  129.99
   1  -3   1 2540.55  123.89
   1  -3   1 2727.43  133.49
  -2   3  -1    2.90    3.90
  -2   3  -1    7.30    6.30
  -2   3  -1   10.20   18.40
   2  -3   1   -1.20    4.40
   2  -3   1   12.30    8.90
   2  -3   1   10.50    6.40
  -3   3  -1 2294.07  125.79
  -3   3  -1 2209.88  112.09
  -3   3  -1 2192.88  192.68
   3  -3   1 2142.89  121.89
   3  -3   1 2299.17  127.89
   3  -3   1 2243.78  114.09
  -4   3  -1 2261.97  114.09
  -4   3  -1 2120.69  204.68
   4  -3   1 2087.69  114.79
   4  -3   1 1730.33  310.77
   4  -3   1 2292.27  126.59
   4  -3   1 2126.49  129.09
  -5   3  -1   32.50   40.20
  -5   3  -1   75.39   22.50
   5  -3   1   81.09   22.10
   5  -3   1   79.69   26.80
   5  -3   1   69.49   20.50
   8   2  -1  158.78   32.90
  -8  -2   1  119.09   31.10
  -8  -2   1  155.78   29.10
  -8  -2   1  117.09   25.00
  -8  -2   1  156.08   27.40
   7   2  -1  681.43   55.99
   7   2  -1  624.84   44.10
   7   2  -1  420.36  117.49
  -7  -2   1  496.85   60.49
  -7  -2   1  611.64   48.80
  -7  -2   1  615.34  141.79
  -7  -2   1  662.43   53.79
   6   2  -1  631.24   49.30
   6   2  -1  577.24   39.50
   6   2  -1  366.16   92.99
  -6  -2   1  591.94   42.60
  -6  -2   1  587.84   47.10
  -6  -2   1  553.54   43.30
  -6  -2   1  652.43  127.99
   5   2  -1  189.48   17.20
   5   2  -1  162.18   54.29
   5   2  -1  197.98   22.80
  -5  -2   1  155.98   23.30
  -5  -2   1  176.68   20.30
  -5  -2   1  167.48   52.39
  -5  -2   1  186.98   19.20
  -5  -2   1  181.58   21.60
   4   2  -1 2566.04  117.89
   4   2  -1 2410.86  124.79
  -4  -2   1 2529.25  120.29
  -4  -2   1 2358.16  176.98
  -4  -2   1 2622.24  124.99
  -4  -2   1 2458.75  124.19
  -4  -2   1 2512.55  123.59
   3   2  -1 2357.66  153.58
   3   2  -1 2412.56  110.49
   3   2  -1 2376.36  116.39
  -3  -2   1 2442.16  112.89
  -3  -2   1 2405.26  118.09
  -3  -2   1 2421.36  157.88
  -3  -2   1 2436.96  116.59
  -3  -2   1 2463.85  115.89
   2   2  -1   75.29    6.20
   2   2  -1   83.79    8.00
   2   2  -1  117.09   26.00
  -2  -2   1   96.19    9.20
  -2  -2   1  105.49   28.10
  -2  -2   1   90.39   10.10
  -2  -2   1   71.89    7.50
   1   2  -1 3382.96  173.48
  -1  -2   1 3418.06  148.59
  -1  -2   1 3653.53  167.48
  -1  -2   1 3020.10  149.79
   0   2  -1 5421.16  252.97
   0   2  -1 5814.22  278.67
   0   2  -1 5840.62  283.87
  -1   2  -1  560.24   63.99
   1  -2   1  706.43   74.79
   1  -2   1  641.34   41.20
   1  -2   1  668.43   39.70
   1  -2   1  654.23   35.70
  -2   2  -1 1372.46  122.39
  -2   2  -1 1410.56   71.79
  -2   2  -1 1353.26   78.59
   2  -2   1 1433.66   72.79
   2  -2   1 1456.95  133.19
   2  -2   1 1564.64   83.49
  -3   2  -1 2669.63  233.38
  -3   2  -1 2489.55  132.29
  -3   2  -1 2435.66  121.99
   3  -2   1 2567.54  131.79
   3  -2   1 2422.16  215.58
   3  -2   1 2471.45  123.29
   3  -2   1 2607.34  135.79
  -4   2  -1 1065.39   71.19
  -4   2  -1  915.91  120.49
  -4   2  -1 1022.60   60.09
   4  -2   1 1165.88  197.98
   4  -2   1 1025.40   71.49
   4  -2   1  970.10   60.59
   4  -2   1  942.61   67.49
  -5   2  -1  337.97   89.79
  -5   2  -1  354.76   30.80
  -5   2  -1  200.48   37.20
   5  -2   1  275.87   29.10
   5  -2   1  340.47   47.30
   5  -2   1  372.86   39.30
  -6   2  -1 1244.58  168.88
  -6   2  -1 1454.25   84.89
   6  -2   1  998.90  216.28
   6  -2   1 1276.57   83.89
   6  -2   1 1395.36   97.29
   6  -2   1 1404.66   98.99
   7   1  -1  382.66  117.39
   7   1  -1  289.07   29.50
   7   1  -1  336.77   34.00
  -7  -1   1  305.97   33.70
  -7  -1   1  266.17   39.60
  -7  -1   1  232.38   79.49
  -7  -1   1  283.27   30.60
  -7  -1   1  210.28   37.70
   6   1  -1   40.00   11.70
   6   1  -1    8.20   23.20
   6   1  -1   16.40   12.40
   6   1  -1   26.00   12.00
  -6  -1   1   32.50   12.20
  -6  -1   1   45.10   15.30
  -6  -1   1   23.10   10.20
  -6  -1   1   32.40   31.90
  -6  -1   1   39.40   11.50
   5   1  -1  259.27   69.89
   5   1  -1  332.27   34.70
   5   1  -1  355.96   27.50
   5   1  -1  351.26   33.50
  -5  -1   1  378.16   83.29
  -5  -1   1  358.76   29.70
  -5  -1   1  378.26   33.50
  -5  -1   1  359.66   28.80
  -5  -1   1  370.96   30.50
   4   1  -1  509.65   94.39
   4   1  -1  567.64   38.40
   4   1  -1  574.54   41.30
   4   1  -1  602.74   35.90
  -4  -1   1  616.34   38.90
  -4  -1   1  606.94   79.09
  -4  -1   1  579.34   36.90
  -4  -1   1  566.24   40.60
  -4  -1   1  589.44   38.60
   3   1  -1  634.04   39.50
   3   1  -1  632.74   72.19
  -3  -1   1  635.04   39.10
  -3  -1   1  618.44   38.10
  -3  -1   1  616.84   35.70
  -3  -1   1  649.83   37.50
  -3  -1   1  668.83   71.49
   2   1  -1 1718.33   74.39
   2   1  -1 1549.84  103.79
  -2  -1   1 1616.74   77.49
  -2  -1   1 1563.94  104.19
  -2  -1   1 1565.54   77.09
  -2  -1   1 1588.84   74.69
   1   1  -1 2368.56  112.99
  -1  -1   1 2188.78  101.59
  -1  -1   1 2340.17  114.89
   0   1  -1  253.97   25.90
   0   1  -1  213.48   11.00
   0   1  -1  210.88   12.90
   0  -1   1  218.18   12.80
   0  -1   1  212.68   11.40
  -1   1  -1  723.53   38.00
  -1   1  -1  739.73   61.69
  -1   1  -1  631.84   34.10
   1  -1   1  663.63   34.50
   1  -1   1  674.13   39.20
   1  -1   1  666.13   61.69
   1  -1   1  673.23   37.10
  -2   1  -1 5578.44  297.07
  -2   1  -1 5289.97  242.38
  -2   1  -1 5233.68  242.18
   2  -1   1 5380.66  301.87
   2  -1   1 5247.77  244.48
   2  -1   1 5165.98  241.88
  -3   1  -1 1808.42  100.09
  -3   1  -1 1891.31   93.89
  -3   1  -1 2027.70  159.18
  -3   1  -1 1978.60  100.29
   3  -1   1 1876.71  161.98
   3  -1   1 1926.31   94.39
   3  -1   1 1877.51  100.49
   3  -1   1 1770.32  114.39
  -4   1  -1   24.50    8.20
  -4   1  -1   14.10    9.20
  -4   1  -1   16.20    9.80
  -4   1  -1    3.50   10.80
  -4   1  -1   34.20    7.80
   4  -1   1   34.00   12.20
   4  -1   1    3.60   12.80
   4  -1   1   35.30   10.10
   4  -1   1   35.90   13.10
  -5   1  -1 1148.49   79.19
  -5   1  -1 1157.08   69.99
  -5   1  -1 1166.18   75.59
  -5   1  -1 1225.68   64.19
  -5   1  -1 1237.68  145.89
   5  -1   1 1215.58   80.29
   5  -1   1 1234.48   80.59
   5  -1   1 1140.59  151.78
   5  -1   1 1143.79   70.09
  -6   1  -1 1442.36  172.98
   6  -1   1 1289.37   82.09
   6  -1   1 1370.86   93.59
   6  -1   1 1442.66   94.89
   7   0  -1  219.88   36.10
   7   0  -1  203.58   37.80
   7   0  -1  167.58   27.40
   7   0  -1  165.18  105.09
  -7   0   1  181.88   30.50
  -7   0   1  171.88   34.10
  -7   0   1  168.08   28.20
  -7   0   1   93.89   64.39
   6   0  -1    6.20   19.70
   6   0  -1   -4.00    7.80
   6   0  -1    4.60    5.50
   6   0  -1   21.80   11.70
  -6   0   1    9.20    6.80
  -6   0   1    7.90    7.80
  -6   0   1   18.00   11.20
  -6   0   1    6.60   21.80
   5   0  -1   90.09   15.90
   5   0  -1   83.69   43.80
   5   0  -1   76.89   16.60
   5   0  -1   66.99   18.60
  -5   0   1   53.89   15.80
  -5   0   1   77.39   16.30
  -5   0   1   65.39   13.30
  -5   0   1   57.59   36.10
  -5   0   1   47.30   11.70
   4   0  -1  112.39   20.40
   4   0  -1  123.99   19.60
   4   0  -1   98.79   38.30
   4   0  -1  120.69   17.00
  -4   0   1  101.99   17.80
  -4   0   1  118.89   17.10
  -4   0   1  130.99   19.20
  -4   0   1  117.49   46.50
   3   0  -1   73.19   14.00
   3   0  -1   80.19   12.90
   3   0  -1   55.39   24.60
  -3   0   1   82.19   33.60
  -3   0   1   66.39   13.30
  -3   0   1   75.69   11.80
  -3   0   1   80.59   12.40
   2   0  -1  750.72   71.19
   2   0  -1  692.23   38.20
   2   0  -1  740.53   41.90
   2   0  -1  738.93   37.90
  -2   0   1  728.83   38.30
  -2   0   1  735.23   38.70
  -2   0   1  734.23   41.30
  -2   0   1  727.03   69.89
   1   0  -1  236.68   13.30
   1   0  -1  227.78   12.80
   1   0  -1  266.67   17.30
  -1   0   1  228.78   15.00
  -1   0   1  240.08   13.70
  -1   0   1  223.88   12.80
  -1   0   1  249.28   28.90
   0   0  -1  185.58   16.40
   0   0  -1  188.88   10.40
   0   0  -1  225.28   10.80
   0   0  -1  195.08   10.60
   0   0   1  186.78   10.70
   0   0   1  204.78   10.60
   0   0   1  187.88   16.40
  -1   0  -1 1039.40   50.59
  -1   0  -1 1035.60   49.60
  -1   0  -1 1041.90   68.69
  -1   0  -1 1000.40   47.60
   1   0   1  970.60   45.80
   1   0   1  993.70   50.39
   1   0   1  989.00   47.60
   1   0   1 1148.09   72.19
  -2   0  -1 2738.23  163.78
  -2   0  -1 2569.54  119.69
  -2   0  -1 2680.73  124.19
   2   0   1 2721.23  170.38
   2   0   1 2566.74  119.59
   2   0   1 2516.55  123.89
  -3   0  -1  112.59   17.20
  -3   0  -1  110.59   12.00
  -3   0  -1   74.69   27.10
  -3   0  -1  109.09   10.70
   3   0   1  123.99   12.30
   3   0   1   79.69   35.00
   3   0   1  120.59   18.70
   3   0   1  118.79   18.10
  -4   0  -1  638.84   85.09
  -4   0  -1  509.95   36.10
  -4   0  -1  587.24   42.40
  -4   0  -1  609.04   42.30
  -4   0  -1  544.65   33.50
   4   0   1  646.54  122.39
   4   0   1  533.35   35.90
   4   0   1  510.85   40.90
   4   0   1  526.55   40.90
  -5   0  -1 1266.77   67.39
  -5   0  -1 1225.28   76.79
  -5   0  -1 1250.17   71.29
  -5   0  -1 1232.08   78.99
  -5   0  -1 1215.88  138.39
   5   0   1 1212.68   70.39
   5   0   1 1287.17  151.78
   5   0   1 1254.87   79.59
   5   0   1 1230.18   78.59
  -6   0  -1  459.55   45.40
  -6   0  -1  342.57   92.19
  -6   0  -1  440.86   41.00
  -6   0  -1  502.15   34.70
  -6   0  -1  439.26   37.50
   6   0   1  500.15   45.70
   6   0   1  490.25  132.29
   6   0   1  494.55   46.70
   6   0   1  458.85   38.40
  -7   0  -1  116.09   64.09
  -7   0  -1   60.29   19.50
  -7   0  -1   87.29   21.20
  -7   0  -1  129.89   20.70
  -7   0  -1   56.89   20.70
   7   0   1  107.39   28.20
   7   0   1  127.09   31.20
   7   0   1   96.69   64.49
   7   0   1   87.79   26.50
   6  -1  -1   21.00   15.50
   6  -1  -1  -10.00   12.50
   6  -1  -1   16.40    9.90
   6  -1  -1   40.90   14.60
  -6   1   1   35.60   10.80
  -6   1   1   13.90   28.30
  -6   1   1   43.00   14.40
   5  -1  -1  165.58   27.00
   5  -1  -1  204.28   30.40
   5  -1  -1  181.88   34.10
   5  -1  -1  159.68   59.19
  -5   1   1  190.48   19.80
  -5   1   1  128.39   51.59
  -5   1   1  186.68   21.60
   4  -1  -1  637.74   45.00
   4  -1  -1  598.14   40.30
   4  -1  -1  652.33   49.30
   4  -1  -1  806.82  149.69
  -4   1   1  619.24   41.10
  -4   1   1  617.54   47.20
  -4   1   1  612.64   41.70
  -4   1   1  548.65  109.89
   3  -1  -1   15.60   16.80
   3  -1  -1   45.10   11.80
   3  -1  -1   23.00    8.60
   3  -1  -1   34.40    8.90
  -3   1   1   34.70   10.60
  -3   1   1    7.70   16.40
  -3   1   1   29.30    9.40
  -3   1   1   34.80    8.70
   2  -1  -1  307.77   21.00
   2  -1  -1  270.37   53.59
   2  -1  -1  312.17   23.50
   2  -1  -1  313.57   25.30
  -2   1   1  516.75   88.19
  -2   1   1  328.37   22.00
   1  -1  -1  783.92   43.10
   1  -1  -1  748.73   38.60
   1  -1  -1  755.72   39.70
   1  -1  -1  812.52   71.39
  -1   1   1  719.13   38.40
  -1   1   1  799.82   71.19
  -1   1   1  765.42   42.50
   0  -1  -1   36.20    6.90
   0  -1  -1   33.50    5.10
   0  -1  -1   58.89   16.20
   0   1   1   34.00    5.20
   0   1   1   23.50    9.00
   0   1   1   34.20    7.10
  -1  -1  -1   59.19    6.50
  -1  -1  -1   73.89    6.40
  -1  -1  -1   69.99    9.10
  -1  -1  -1   66.69   20.40
  -1  -1  -1   69.49   10.00
   1   1   1   75.19    7.00
   1   1   1   71.79    6.40
   1   1   1   78.39   10.30
   1   1   1   63.59   16.90
  -2  -1  -1  804.62   42.30
  -2  -1  -1  793.92   68.39
  -2  -1  -1  752.72   38.70
  -2  -1  -1  752.12   41.70
  -2  -1  -1  720.53   38.00
   2   1   1  757.42   41.70
   2   1   1  749.82   38.40
   2   1   1  806.42   69.89
   2   1   1  646.04   41.00
  -3  -1  -1  170.08   17.70
  -3  -1  -1  151.58   43.90
  -3  -1  -1  176.98   15.90
  -3  -1  -1  190.58   15.30
  -3  -1  -1  198.88   18.30
   3   1   1  176.68   17.90
   3   1   1  260.97   63.19
   3   1   1  206.78   15.80
   3   1   1  218.58   19.70
  -4  -1  -1  526.95   39.00
  -4  -1  -1  518.65   33.30
  -4  -1  -1  565.14   38.80
  -4  -1  -1  518.15   91.89
  -4  -1  -1  514.75   34.60
   4   1   1  484.55   37.70
   4   1   1  544.65   34.10
   4   1   1  480.35   96.89
   4   1   1  506.05   38.50
  -5  -1  -1  440.06   37.90
  -5  -1  -1  506.35   41.10
  -5  -1  -1  501.55   35.50
  -5  -1  -1  453.55   95.89
  -5  -1  -1  467.25   32.70
   5   1   1  441.96   38.90
   5   1   1  244.98   66.49
   5   1   1  471.95   33.80
   5   1   1  521.15   40.60
  -6  -1  -1  238.18   22.40
  -6  -1  -1  203.88   33.80
  -6  -1  -1  124.79   51.79
  -6  -1  -1  237.78   24.70
  -6  -1  -1  218.38   33.80
   6   1   1  293.27   40.50
   6   1   1  175.98   29.70
   6   1   1  158.88   72.09
   6   1   1  186.88   21.70
  -7  -1  -1  177.28   28.70
  -7  -1  -1  216.68   23.00
  -7  -1  -1  126.19   29.60
  -7  -1  -1  131.99   70.09
  -7  -1  -1  154.18   30.80
   7   1   1  255.97   40.70
   7   1   1  186.38   35.60
   7   1   1  163.58   32.30
   7   1   1  163.28   95.09
   6  -2  -1    6.50    8.50
   6  -2  -1   39.60   21.30
   6  -2  -1   35.50   19.80
  -6   2   1    9.60   13.10
  -6   2   1   26.10   10.00
  -6   2   1   18.90   33.00
  -6   2   1   31.70   13.40
   5  -2  -1  575.64   53.19
   5  -2  -1  606.44   45.50
   5  -2  -1  610.04   50.99
  -5   2   1  576.04   39.90
  -5   2   1  596.74   44.50
  -5   2   1  560.94   52.19
  -5   2   1  595.54  143.69
   4  -2  -1   73.59   18.10
   4  -2  -1   71.09   15.00
   4  -2  -1   38.20   14.40
   4  -2  -1   48.20   32.30
  -4   2   1   70.89   42.20
  -4   2   1   52.19   16.00
  -4   2   1  107.19   18.40
   3  -2  -1  128.39   56.89
   3  -2  -1  106.69   20.70
   3  -2  -1  101.19   16.70
   3  -2  -1   91.69   22.00
  -3   2   1  119.49   13.90
  -3   2   1   96.49   19.90
  -3   2   1   89.79   36.10
   2  -2  -1  469.75   36.20
   2  -2  -1  514.25   35.70
   2  -2  -1  657.33  116.09
  -2   2   1  428.16   29.70
  -2   2   1  443.66   76.09
  -2   2   1  465.05   35.50
   1  -2  -1 2318.97  115.19
  -1   2   1 2512.05  115.39
  -1   2   1 2619.44  157.78
  -1   2   1 2549.74  122.89
   0  -2  -1   53.59   10.60
   0  -2  -1   51.89   20.10
   0  -2  -1   38.30    7.00
   0   2   1   44.20    7.10
   0   2   1   40.90    7.00
   0   2   1   43.90   10.00
   0   2   1   79.09   25.80
  -1  -2  -1  582.64   35.10
  -1  -2  -1  551.04   31.40
  -1  -2  -1  585.34   57.99
  -1  -2  -1  599.44   33.10
   1   2   1  579.44   33.50
   1   2   1  701.83  112.29
   1   2   1  633.54   32.30
   1   2   1  559.74   30.90
  -2  -2  -1 1744.83  123.19
  -2  -2  -1 1649.93   86.89
  -2  -2  -1 1804.62   83.19
  -2  -2  -1 1771.52   83.79
   2   2   1 1733.63  120.99
   2   2   1 1654.13   86.59
   2   2   1 1787.82   82.29
   2   2   1 1778.02   82.89
  -3  -2  -1  418.86   30.80
  -3  -2  -1  421.36   27.80
  -3  -2  -1  482.85   81.99
  -3  -2  -1  505.55   33.20
  -3  -2  -1  423.76   28.00
   3   2   1  436.76   27.00
   3   2   1  500.55   61.29
   3   2   1  445.76   32.20
   3   2   1  449.06   28.40
  -4  -2  -1  293.07   26.70
  -4  -2  -1  319.87   27.70
  -4  -2  -1  279.07   61.19
  -4  -2  -1  331.77   24.50
  -4  -2  -1  298.87   27.40
   4   2   1  336.17   28.70
   4   2   1  320.07   28.10
   4   2   1  306.97   22.70
   4   2   1  441.56   87.49
  -5  -2  -1  268.87   27.50
  -5  -2  -1  259.27   26.30
  -5  -2  -1  272.67   75.79
  -5  -2  -1  222.18   21.70
  -5  -2  -1  239.58   22.60
   5   2   1  240.98   25.90
   5   2   1  370.26   93.99
   5   2   1  246.48   21.60
   5   2   1  234.78   26.30
  -6  -2  -1   28.90   24.50
  -6  -2  -1    6.50    6.50
  -6  -2  -1    5.20    7.00
  -6  -2  -1    1.90    4.70
  -6  -2  -1   -4.70    3.60
   6   2   1   -2.30    6.30
   6   2   1    4.60    4.90
   6   2   1   11.80   10.20
   6   2   1    3.30    6.80
  -7  -2  -1   75.29   17.00
  -7  -2  -1   72.19   22.10
  -7  -2  -1   87.09   25.10
  -7  -2  -1   69.09   46.00
  -7  -2  -1  104.39   21.70
   7   2   1   18.70   21.00
   7   2   1   73.59   19.20
   7   2   1  103.69   25.20
  -8  -2  -1  175.78   37.10
  -8  -2  -1  188.98   87.69
  -8  -2  -1  170.18   35.30
  -8  -2  -1  204.18   34.50
  -8  -2  -1  247.98   27.20
   8   2   1  185.28   34.30
   8   2   1  169.78   28.90
   8   2   1  210.88   40.70
   8   2   1  197.98   81.29
   5  -3  -1  969.50   74.99
   5  -3  -1  832.72   61.69
   5  -3  -1  938.11   74.19
  -5   3   1  978.10   62.89
  -5   3   1  713.13  159.88
  -5   3   1  825.12   71.99
   4  -3  -1  393.66   39.80
   4  -3  -1  305.67   44.10
   4  -3  -1  300.97   30.30
  -4   3   1  318.57   37.50
  -4   3   1  406.56   32.50
  -4   3   1  287.07   91.99
   3  -3  -1  248.68   23.60
   3  -3  -1  243.48   28.50
   3  -3  -1  207.18   32.10
  -3   3   1  200.78   61.69
  -3   3   1  230.88   22.40
  -3   3   1  249.88   56.19
   2  -3  -1 1112.49   70.19
   2  -3  -1 1117.99   62.09
   2  -3  -1 1146.59   68.69
  -2   3   1 1133.09  123.99
  -2   3   1 1110.39   70.59
  -2   3   1 1057.49   60.69
   1  -3  -1  865.21   49.20
  -1   3   1  956.40  102.19
  -1   3   1  892.91   48.90
  -1   3   1  858.01   87.49
  -1   3   1  871.11   47.30
  -1   3   1  936.91   58.09
   0  -3  -1  112.19   18.40
   0  -3  -1   96.79   10.70
   0   3   1   90.79    9.80
   0   3   1  105.69   20.40
   0   3   1   91.79    9.60
   0   3   1  122.29   40.00
  -1  -3  -1  646.24   37.40
  -1  -3  -1  618.04   42.70
  -1  -3  -1  486.45   58.29
  -1  -3  -1  717.03   38.00
   1   3   1  645.44   39.80
   1   3   1  692.03   35.70
   1   3   1  610.54   35.00
  -2  -3  -1  485.45   34.20
  -2  -3  -1  584.84   69.19
  -2  -3  -1  486.75   33.90
  -2  -3  -1  523.95   31.90
   2   3   1  533.65   31.20
   2   3   1  566.94   33.50
  -3  -3  -1  200.08   17.80
  -3  -3  -1  186.88   19.20
  -3  -3  -1  185.78   20.30
  -3  -3  -1  130.49   40.90
  -3  -3  -1  179.48   16.90
   3   3   1  178.38   16.40
   3   3   1  201.98   19.20
   3   3   1  198.08   15.30
  -4  -3  -1  602.54   44.10
  -4  -3  -1  615.34   39.60
  -4  -3  -1  643.54   39.80
  -4  -3  -1  564.74   41.50
  -4  -3  -1  617.54   81.59
   4   3   1  603.74   36.30
   4   3   1  626.84   44.50
   4   3   1  635.74   39.80
   4   3   1  570.54   75.79
  -5  -3  -1  845.12   52.49
  -5  -3  -1  866.91   57.89
  -5  -3  -1  838.62   57.89
  -5  -3  -1  848.32  105.09
  -5  -3  -1  848.22   53.19
   5   3   1  858.91   59.59
   5   3   1  874.51  106.09
   5   3   1  900.61   50.49
  -6  -3  -1   10.50    7.40
  -6  -3  -1    9.20    8.40
  -6  -3  -1    0.10    5.90
  -6  -3  -1   -0.20    8.30
   6   3   1    8.80    9.40
   6   3   1    3.60   12.60
   6   3   1    4.70    4.70
  -7  -3  -1  139.19   23.70
  -7  -3  -1  120.49   26.20
  -7  -3  -1  190.88   67.79
  -7  -3  -1  145.49   24.40
  -7  -3  -1  118.09   26.70
   7   3   1  100.59   21.10
   7   3   1  153.78   29.40
   7   3   1  102.59   56.59
  -8  -3  -1  177.98   29.30
  -8  -3  -1  166.48   37.10
  -8  -3  -1  176.08   27.80
  -8  -3  -1  112.89   28.20
  -8  -3  -1   26.80   36.70
   8   3   1   92.49   20.40
   8   3   1   94.79   55.59
   4  -4  -1   19.20   17.30
   4  -4  -1   30.10   12.40
   4  -4  -1   38.20   29.80
  -4   4   1   37.10   43.80
  -4   4   1   21.30   10.60
  -4   4   1   13.50   13.10
  -4   4   1   26.30   26.20
   3  -4  -1  888.21   67.19
   3  -4  -1  860.31   65.19
   3  -4  -1  852.31   56.19
  -3   4   1  893.81   69.09
  -3   4   1  763.62  132.09
  -3   4   1  816.72   66.19
  -3   4   1  969.50  172.08
   2  -4  -1 1510.95   91.99
   2  -4  -1 1492.15   90.49
  -2   4   1 1441.56  144.39
  -2   4   1 1446.06   92.49
  -2   4   1 1533.05  159.18
  -2   4   1 1504.05   80.39
   1  -4  -1  422.56   30.80
  -1   4   1  495.55  106.49
  -1   4   1  389.96   37.10
  -1   4   1  370.26   73.09
  -1   4   1  375.56   28.10
  -1   4   1  412.76   26.20
   0  -4  -1  549.15   41.10
   0  -4  -1  546.95   35.10
   0   4   1  524.35   41.70
   0   4   1  436.66   83.49
   0   4   1  497.25   30.60
   0   4   1  512.95   89.39
  -1  -4  -1 2344.17  125.09
  -1  -4  -1 2546.25  118.09
  -1  -4  -1 2423.86  161.98
  -1  -4  -1 2502.45  118.49
   1   4   1 2396.16  121.39
   1   4   1 1962.20  178.08
   1   4   1 2329.47  113.59
   1   4   1 2565.64  115.89
  -2  -4  -1  879.81   61.49
  -2  -4  -1  987.20   58.29
  -2  -4  -1 1056.39   56.19
  -2  -4  -1 1033.90   97.79
   2   4   1 1034.20   55.19
   2   4   1  901.21  100.49
   2   4   1 1029.00   54.19
  -3  -4  -1   55.49   13.90
  -3  -4  -1   40.10    9.40
  -3  -4  -1   46.00   29.10
  -3  -4  -1   49.80   11.40
   3   4   1   52.09   10.40
   3   4   1   16.60   16.00
   3   4   1   46.50    9.40
  -4  -4  -1  957.30   56.29
  -4  -4  -1  921.81   61.69
  -4  -4  -1  981.40   59.39
  -4  -4  -1  771.12   99.79
  -4  -4  -1  916.11   54.99
   4   4   1  946.61   56.99
   4   4   1  878.11   53.99
   4   4   1  937.91   50.59
   4   4   1  800.22   96.29
  -5  -4  -1  353.56   89.39
  -5  -4  -1  377.36   33.40
  -5  -4  -1  375.76   35.90
  -5  -4  -1  352.16   30.70
   5   4   1  359.46   30.00
   5   4   1  354.66   37.60
   5   4   1  414.46   35.40
  -6  -4  -1   19.00   10.10
  -6  -4  -1   15.50   21.40
  -6  -4  -1   20.20   10.70
  -6  -4  -1   13.60    9.00
  -6  -4  -1   19.90   10.10
   6   4   1    9.90    5.60
   6   4   1    5.80   18.90
   6   4   1    3.40    8.40
  -7  -4  -1  438.56   37.40
  -7  -4  -1  423.66   44.10
  -7  -4  -1  342.67   90.49
  -7  -4  -1  413.06   40.40
  -7  -4  -1  412.66   44.40
   7   4   1  396.76  112.09
   7   4   1  304.37   44.30
   7   4   1  354.26   31.00
  -8  -4  -1  273.67   43.60
  -8  -4  -1  265.57   87.79
  -8  -4  -1  264.47   46.20
  -8  -4  -1  349.67   35.60
  -8  -4  -1  386.56   36.40
   8   4   1  292.27   33.10
   8   4   1  359.36   50.19
   8   4   1  149.79   63.59
   3  -5  -1 1394.96   88.79
   3  -5  -1 1566.14  104.59
   3  -5  -1 1633.64  102.69
  -3   5   1 1622.84  186.98
  -3   5   1 1610.24   88.29
  -3   5   1 1316.57  110.99
  -3   5   1 1521.85  169.28
   2  -5  -1  521.85   48.00
   2  -5  -1  506.85   47.20
   2  -5  -1  516.95   40.80
  -2   5   1  513.65  115.79
  -2   5   1  520.35   38.00
  -2   5   1  425.46   97.49
  -2   5   1  520.95   57.19
   1  -5  -1  108.09   21.90
   1  -5  -1  108.49   19.40
   1  -5  -1  106.29   23.00
  -1   5   1  111.19   17.70
  -1   5   1  100.39   46.20
  -1   5   1   85.79   23.50
  -1   5   1   38.50   30.30
   0  -5  -1 1720.73  100.09
   0  -5  -1 1709.63   92.39
   0   5   1 1730.23  162.88
   0   5   1 1740.13   87.59
  -1  -5  -1 2010.80  107.59
  -1  -5  -1 2205.28  116.39
  -1  -5  -1 2192.18  108.99
   1   5   1 2030.90  101.79
   1   5   1 2070.89  110.69
   1   5   1 2123.49  183.48
  -2  -5  -1    9.90    7.10
  -2  -5  -1    6.50    6.00
  -2  -5  -1   -1.20    4.90
  -2  -5  -1   28.00   18.10
   2   5   1    4.10    3.20
   2   5   1    7.00    5.10
   2   5   1    6.90    5.00
   2   5   1   12.00   19.70
  -3  -5  -1 1381.76   89.59
  -3  -5  -1 1596.44   90.49
  -3  -5  -1 1592.44  140.39
  -3  -5  -1 1593.14   84.29
   3   5   1 1509.75   82.09
   3   5   1 1612.14   79.89
   3   5   1 1567.34  143.69
   3   5   1 1644.94   79.59
  -4  -5  -1 2054.19  108.09
  -4  -5  -1 2057.59  112.39
  -4  -5  -1 2019.60  179.08
  -4  -5  -1 2185.38  115.29
   4   5   1 2088.79  104.39
   4   5   1 2100.29  107.49
   4   5   1 2158.18  174.68
   4   5   1 1993.80  103.29
  -5  -5  -1  444.16  102.39
  -5  -5  -1  444.76   38.20
  -5  -5  -1  457.55   37.30
  -5  -5  -1  411.66   40.70
   5   5   1  376.96   81.29
   5   5   1  451.55   39.50
  -6  -5  -1  493.15  116.99
  -6  -5  -1  543.75   43.30
  -6  -5  -1  548.75   45.50
  -6  -5  -1  573.64   43.90
  -6  -5  -1  496.55   47.80
   6   5   1  533.35   47.80
   6   5   1  687.33  130.49
  -7  -5  -1 1076.09   74.39
  -7  -5  -1 1125.59   71.69
  -7  -5  -1 1049.79   69.69
  -7  -5  -1 1019.80  178.08
  -7  -5  -1 1035.80   77.29
   7   5   1 1051.89   73.09
   7   5   1  983.40   61.29
  -8  -5  -1  280.27   31.60
  -8  -5  -1  309.07   33.00
  -8  -5  -1  203.78   86.19
  -8  -5  -1  204.18   39.70
  -8  -5  -1  254.97   42.70
   8   5   1  163.08   24.70
   8   5   1  191.78   36.60
   8   5   1  143.49   68.19
   2  -6  -1    9.70    9.80
   2  -6  -1   16.10   13.20
   2  -6  -1   15.70   12.70
  -2   6   1    6.20   16.20
  -2   6   1   19.00   29.40
  -2   6   1    7.00   13.00
  -2   6   1   16.80    9.50
   1  -6  -1 1450.65   92.89
   1  -6  -1 1443.76   91.99
   1  -6  -1 1396.56   87.09
  -1   6   1 1159.98   88.49
  -1   6   1 1406.06   76.99
  -1   6   1 1467.55  166.68
  -1   6   1 1171.58  150.38
   0  -6  -1 1847.52  107.19
   0  -6  -1 1689.53   97.19
   0   6   1 1729.23   92.29
   0   6   1 2008.80  219.48
   0   6   1 1581.54  173.08
  -1  -6  -1  176.98   29.10
  -1  -6  -1  197.28   23.10
   1   6   1  149.29   64.29
   1   6   1  209.48   66.09
   1   6   1  226.88   19.70
   1   6   1  222.88   19.70
  -2  -6  -1  860.81   95.89
  -2  -6  -1  942.51   65.99
  -2  -6  -1  960.40   58.99
  -2  -6  -1  915.81   61.39
   2   6   1  912.71   53.89
   2   6   1 1017.00  125.09
   2   6   1  915.21   51.29
  -3  -6  -1 2684.83  149.19
  -3  -6  -1 3049.09  209.68
  -3  -6  -1 2834.92  156.28
   3   6   1 2972.40  136.09
   3   6   1 2857.81  224.78
   3   6   1 2898.01  141.59
  -4  -6  -1  797.12  139.09
  -4  -6  -1  957.10   65.39
  -4  -6  -1  856.31   64.99
  -4  -6  -1  937.11   59.29
   4   6   1  915.61   51.89
   4   6   1 1203.38  200.18
   4   6   1  861.91   56.39
  -5  -6  -1  208.38   32.40
  -5  -6  -1  190.78   30.80
  -5  -6  -1  220.78   24.90
  -5  -6  -1  178.78   33.60
  -5  -6  -1  197.78   65.69
   5   6   1  195.58   67.39
   5   6   1  187.08   19.50
  -6  -6  -1 1474.15  106.49
  -6  -6  -1 1803.32  104.59
  -6  -6  -1 1778.82  184.48
  -6  -6  -1 2022.30  115.89
   6   6   1 1850.91   96.09
   6   6   1 1672.93  167.38
   6   6   1 1628.74   88.89
  -7  -6  -1 1181.88   75.79
  -7  -6  -1 1004.20   80.79
  -7  -6  -1 1129.39   75.49
  -7  -6  -1 1030.10   75.29
  -7  -6  -1 1138.19  152.78
   7   6   1  991.50  133.99
   7   6   1 1177.08   72.09
   7   6   1 1054.89   81.29
  -8  -6  -1   -2.50    7.20
  -8  -6  -1    4.80    9.20
  -8  -6  -1   14.40   11.50
  -8  -6  -1   -1.90   17.80
   8   6   1    3.10    8.50
   8   6   1    2.40    6.50
   1  -7  -1 1360.66   97.29
   1  -7  -1 1339.47   87.89
   1  -7  -1 1410.86   96.19
  -1   7   1 1194.18   94.69
  -1   7   1 1575.94  100.59
  -1   7   1 1681.73  190.88
   0  -7  -1  418.96   39.90
   0   7   1  468.05   34.70
   0   7   1  627.24  147.29
   0   7   1  443.26  113.69
   0   7   1  356.96   39.80
  -1  -7  -1  324.17   34.50
  -1  -7  -1  443.56   42.30
   1   7   1  371.46   28.80
   1   7   1  378.96   35.20
   1   7   1  364.36   28.50
   1   7   1  306.57   97.39
   1   7   1  455.85  112.89
  -2  -7  -1 2081.49  114.19
  -2  -7  -1 1998.90  116.79
  -2  -7  -1 2109.69  122.59
   2   7   1 1931.31  106.19
   2   7   1 2079.39  102.39
   2   7   1 2197.28  207.98
   2   7   1 2105.09  107.39
  -3  -7  -1 1279.17   83.59
  -3  -7  -1 1356.26   79.79
  -3  -7  -1 1282.47  125.69
   3   7   1 1254.07   67.29
   3   7   1 1336.87   77.29
   3   7   1 1386.86  150.48
   3   7   1 1184.28   72.49
  -4  -7  -1   51.99   15.20
  -4  -7  -1    1.50   10.20
  -4  -7  -1   12.80   15.30
  -4  -7  -1    6.30    9.70
   4   7   1   15.00   19.00
   4   7   1    5.10    4.40
   4   7   1   13.90    6.40
  -5  -7  -1 1484.25   87.89
  -5  -7  -1 1491.45   96.19
  -5  -7  -1 1577.44  154.88
  -5  -7  -1 1386.86   90.99
   5   7   1 1460.05   75.29
   5   7   1 1445.76  150.98
   5   7   1 1336.57   73.39
   5   7   1 1337.37   85.99
  -6  -7  -1 1631.24   99.39
  -6  -7  -1 1340.87  103.39
  -6  -7  -1 1846.52  106.39
  -6  -7  -1 1709.53  176.68
  -6  -7  -1 1674.63   98.09
   6   7   1 1591.64   84.69
   6   7   1 1463.55   81.39
   6   7   1 1565.94  162.58
  -7  -7  -1  134.19   28.70
  -7  -7  -1   90.89   23.60
  -7  -7  -1  132.19   71.49
  -7  -7  -1  135.09   27.70
  -7  -7  -1   59.09   26.00
   7   7   1   75.49   14.20
   7   7   1   36.90   37.50
   7   7   1  108.29   19.20
  -2  -8  -1 1092.09   79.09
  -2  -8  -1 1180.58   82.09
   2   8   1 1204.88   63.69
   2   8   1  998.10   65.49
   2   8   1  977.00  175.08
   2   8   1 1474.75  161.88
  -3  -8  -1  108.29   25.60
  -3  -8  -1   83.59   20.80
  -3  -8  -1   62.69   21.50
   3   8   1   76.99   17.70
   3   8   1  118.29   61.29
   3   8   1   68.09   13.10
  -4  -8  -1  435.56   87.89
  -4  -8  -1  509.35   49.70
  -4  -8  -1  452.75   51.89
  -4  -8  -1  539.45   51.09
   4   8   1  449.95   31.50
   4   8   1  464.65   40.40
   4   8   1  647.34  130.99
  -5  -8  -1 1573.94   98.09
  -5  -8  -1 1286.27  138.69
  -5  -8  -1 1545.35   91.79
  -5  -8  -1 1654.73  104.19
   5   8   1 1272.77   85.19
   5   8   1 1335.47  151.58
   5   8   1 1258.47   71.49
   5   8   1 1410.26   73.09
  -6  -8  -1  426.56   41.40
  -6  -8  -1  374.66   40.80
  -6  -8  -1  378.26   44.10
  -6  -8  -1  210.78   47.20
   6   8   1  305.77   25.10
   6   8   1  336.27   25.80
   6   8   1  464.95  149.09
   6   7  -2  552.14   72.99
  -6  -7   2  493.55   44.40
  -6  -7   2  517.15   44.00
  -6  -7   2  450.45   37.80
  -6  -7   2  351.76   56.29
  -6  -7   2  351.86   69.19
   5   7  -2 1133.49   99.59
  -5  -7   2 1199.08   75.29
  -5  -7   2 1085.99   90.09
  -5  -7   2 1108.49   73.79
  -5  -7   2 1067.99   66.99
   4   7  -2  181.48   44.80
  -4  -7   2  153.08   25.00
  -4  -7   2  159.48   27.20
  -4  -7   2  131.79   22.40
   3   7  -2  378.16   66.99
   3   7  -2  408.26   73.99
  -3  -7   2  392.66   35.20
  -3  -7   2  423.36   37.10
  -3  -7   2  400.86   34.50
   2   7  -2 1219.28  111.79
   2   7  -2 1177.58  128.19
  -2  -7   2  891.11   64.29
  -2  -7   2 1083.09   66.19
   1   7  -2  612.04  114.69
   1   7  -2  668.73  112.49
  -1  -7   2  514.55   49.40
  -1  -7   2  504.25   42.50
  -1  -7   2  555.74   43.80
   7   6  -2   89.69   42.50
  -7  -6   2  138.69   27.30
  -7  -6   2  112.89   30.30
  -7  -6   2  107.59   21.50
  -7  -6   2  135.39   24.00
  -7  -6   2  266.27   83.29
   6   6  -2  297.07   66.99
  -6  -6   2  362.06   36.40
  -6  -6   2  399.46   35.40
  -6  -6   2  413.16   88.19
  -6  -6   2  399.76   33.40
  -6  -6   2  269.87   45.40
   5   6  -2  210.78   52.69
  -5  -6   2  274.67   29.30
  -5  -6   2  224.98   53.89
  -5  -6   2  287.77   26.10
  -5  -6   2  280.07   28.60
   4   6  -2   92.09   30.50
  -4  -6   2  129.29   20.60
  -4  -6   2  143.99   23.60
  -4  -6   2  112.59   21.00
  -4  -6   2  111.19   31.50
   3   6  -2 1058.19   96.29
  -3  -6   2 1063.89   64.49
  -3  -6   2 1047.10   64.19
  -3  -6   2 1051.79   64.39
   2   6  -2  284.57   59.19
   2   6  -2  461.15   99.99
  -2  -6   2  450.15   34.70
  -2  -6   2  408.66   33.40
  -2  -6   2  449.76   33.40
   1   6  -2   -0.60   14.20
   1   6  -2   28.10   25.60
  -1  -6   2    0.80    5.20
   0   6  -2  849.52  100.49
   0   6  -2  813.62  106.19
   0   6  -2  747.83   45.20
   0  -6   2  722.63   51.79
   0  -6   2  827.52   62.29
   0  -6   2  814.92   55.09
  -1   6  -2  965.90   53.69
  -1   6  -2  782.42  137.79
  -1   6  -2  923.01  177.48
   1  -6   2  824.52   59.19
   1  -6   2  969.90   64.79
   1  -6   2  936.71   71.19
   7   5  -2  130.79   23.60
   7   5  -2  122.39   14.00
   7   5  -2   82.19   41.70
  -7  -5   2  123.69   23.60
  -7  -5   2  120.89   24.20
  -7  -5   2  179.88   67.49
  -7  -5   2  110.99   27.00
  -7  -5   2  172.98   27.30
   6   5  -2  247.28   64.99
   6   5  -2  273.97   20.70
  -6  -5   2  233.08   38.20
  -6  -5   2  261.97   33.20
  -6  -5   2  292.77   27.80
  -6  -5   2  292.67   28.10
  -6  -5   2  286.57   75.89
   5   5  -2   15.70   14.90
  -5  -5   2   19.00    8.00
  -5  -5   2   14.10    8.40
  -5  -5   2   21.50   10.00
  -5  -5   2    6.30    9.40
  -5  -5   2   12.30   17.70
   4   5  -2  216.78   46.70
  -4  -5   2  180.08   18.40
  -4  -5   2  147.19   42.70
  -4  -5   2  164.88   20.20
  -4  -5   2  178.08   19.40
   3   5  -2  534.55   55.89
  -3  -5   2  542.95   39.20
  -3  -5   2  504.85   50.59
  -3  -5   2  591.74   39.80
  -3  -5   2  562.34   38.30
   2   5  -2   75.69   27.80
   2   5  -2   49.10   23.00
  -2  -5   2   83.39   14.60
  -2  -5   2  109.99   17.10
   1   5  -2  356.46   72.89
   1   5  -2  436.06   73.49
  -1  -5   2  341.57   27.90
  -1  -5   2  334.87   26.70
   0   5  -2  590.04   32.90
   0   5  -2  599.74   80.39
   0   5  -2  643.74   79.39
   0  -5   2  508.25   37.90
   0  -5   2  581.64   47.00
   0  -5   2  624.84   42.70
  -1   5  -2  226.18   64.59
  -1   5  -2  170.88   16.00
  -1   5  -2  138.39   24.00
  -1   5  -2  182.88   59.59
   1  -5   2  149.99   24.60
   1  -5   2  161.38   19.10
   1  -5   2  163.88   31.50
  -2   5  -2  138.99   19.60
  -2   5  -2   77.49   20.80
  -2   5  -2   89.59   45.90
  -2   5  -2  143.59   67.09
   2  -5   2  107.99   22.30
   2  -5   2  114.69   25.60
   2  -5   2  104.49   19.90
  -3   5  -2  487.45   51.89
  -3   5  -2  489.55  109.39
  -3   5  -2  615.24   48.60
  -3   5  -2  765.22  143.19
   3  -5   2  656.03   60.29
   3  -5   2  597.54   51.99
   3  -5   2  652.03   63.89
   7   4  -2   61.29   39.60
   7   4  -2   99.99   20.90
   7   4  -2   83.39   14.70
  -7  -4   2   62.39   15.00
  -7  -4   2   97.69   21.30
  -7  -4   2   81.79   19.20
  -7  -4   2  102.19   53.09
  -7  -4   2   93.09   21.00
   6   4  -2  110.79   47.70
   6   4  -2   74.09   11.80
   6   4  -2   83.89   17.00
  -6  -4   2   88.09   44.20
  -6  -4   2   44.90   15.80
  -6  -4   2   79.39   17.60
  -6  -4   2   75.89   15.40
  -6  -4   2   67.89   16.90
   5   4  -2   20.50    7.10
   5   4  -2    9.70    4.40
   5   4  -2    7.60   14.10
  -5  -4   2    3.40   11.50
  -5  -4   2    9.10    7.70
  -5  -4   2    8.30    6.40
  -5  -4   2    7.90    7.80
  -5  -4   2   12.80    7.20
   4   4  -2  104.59   32.90
  -4  -4   2   98.69   14.90
  -4  -4   2   95.19   34.40
  -4  -4   2   81.49   16.20
  -4  -4   2  101.89   15.10
   3   4  -2  302.97   38.00
  -3  -4   2  327.27   24.60
  -3  -4   2  317.77   40.70
  -3  -4   2  313.87   23.80
  -3  -4   2  323.47   26.10
   2   4  -2   15.30   12.00
  -2  -4   2   14.20    5.70
  -2  -4   2   11.20    6.40
   1   4  -2  412.86   53.59
   1   4  -2  369.76   46.10
  -1  -4   2  371.06   24.80
  -1  -4   2  350.96   26.20
   0   4  -2  528.55   33.70
   0   4  -2  515.85   65.19
   0   4  -2  500.25   63.29
   0   4  -2  556.04   29.50
   0  -4   2  520.35   33.10
  -1   4  -2   75.79   17.00
  -1   4  -2   92.89   10.60
  -1   4  -2   62.49   30.50
   1  -4   2   88.39   18.60
   1  -4   2   65.59   14.50
   1  -4   2   63.39   13.10
  -2   4  -2  199.58   18.60
  -2   4  -2  138.39   53.49
  -2   4  -2  167.58   53.99
   2  -4   2  185.58   29.10
   2  -4   2  172.48   30.60
   2  -4   2  187.68   20.30
  -3   4  -2  280.57   39.90
  -3   4  -2  308.27   26.50
  -3   4  -2  269.97   77.29
   3  -4   2  274.97   27.90
   3  -4   2  235.88   39.00
   3  -4   2  289.97   33.60
  -4   4  -2   31.90   11.20
  -4   4  -2   -2.70   16.80
  -4   4  -2    6.40   10.80
   4  -4   2   44.70   15.70
   4  -4   2   50.39   21.70
   4  -4   2   32.70   13.60
   8   3  -2   14.60   10.30
   8   3  -2   24.70   14.90
  -8  -3   2    0.20    7.10
  -8  -3   2   16.60   12.90
  -8  -3   2   29.90   11.60
  -8  -3   2    6.80    9.70
   7   3  -2   75.49   49.20
   7   3  -2  139.29   21.40
  -7  -3   2  178.98   28.80
  -7  -3   2  173.58   26.30
  -7  -3   2  180.38   71.59
  -7  -3   2  154.58   30.30
  -7  -3   2  140.49   26.50
   6   3  -2  310.97   24.80
   6   3  -2  387.56   34.20
   6   3  -2  267.17   75.89
  -6  -3   2  354.76   32.70
  -6  -3   2  354.66   32.60
  -6  -3   2  182.18   60.39
  -6  -3   2  340.07   32.60
  -6  -3   2  317.77   28.60
   5   3  -2    7.90    6.40
   5   3  -2    5.50    4.00
   5   3  -2   10.90   16.40
  -5  -3   2    4.40    5.10
  -5  -3   2    2.60    5.40
  -5  -3   2    4.70    5.80
  -5  -3   2   15.10    8.50
  -5  -3   2   10.70   15.50
   4   3  -2  226.68   52.39
   4   3  -2  230.18   15.40
   4   3  -2  210.38   18.50
  -4  -3   2  200.18   21.10
  -4  -3   2  210.58   22.50
  -4  -3   2  210.88   19.30
  -4  -3   2  294.37   62.39
   3   3  -2  311.47   39.10
  -3  -3   2  335.87   44.60
  -3  -3   2  330.57   26.60
  -3  -3   2  352.56   22.20
  -3  -3   2  326.37   22.70
   2   3  -2   67.29   17.40
  -2  -3   2   83.59   12.90
  -2  -3   2   73.39    8.70
  -2  -3   2   75.09   19.60
  -2  -3   2   87.49    9.40
   1   3  -2  181.28   32.30
   1   3  -2  215.58   40.20
  -1  -3   2  181.78   14.70
  -1  -3   2  180.38   14.20
  -1  -3   2  179.08   13.00
   0   3  -2  134.19    9.70
   0   3  -2  120.89   12.20
   0   3  -2  141.19   35.10
   0   3  -2  140.99   35.10
   0  -3   2  135.49   11.70
  -1   3  -2  226.18   54.59
  -1   3  -2  163.98   17.90
  -1   3  -2  173.08   13.80
   1  -3   2  166.08   17.40
   1  -3   2  170.08   24.90
   1  -3   2  152.48   14.60
  -2   3  -2  232.88   34.80
  -2   3  -2  187.38   57.49
   2  -3   2  196.88   19.30
   2  -3   2  267.87   28.60
   2  -3   2  247.18   24.50
  -3   3  -2  418.96   30.90
  -3   3  -2  347.17   80.49
   3  -3   2  400.66   32.30
   3  -3   2  440.46   42.20
   3  -3   2  438.46   38.00
  -4   3  -2    7.20    9.10
  -4   3  -2    8.20   17.30
  -4   3  -2   16.50    8.50
   4  -3   2   -8.20   10.50
   4  -3   2   25.30   13.40
   4  -3   2    4.80    6.20
   4  -3   2   14.60   15.40
  -5   3  -2   26.40   10.70
  -5   3  -2   38.00   37.30
  -5   3  -2   42.20   19.30
   5  -3   2   49.00   54.39
   5  -3   2   46.30   15.40
   5  -3   2   72.99   22.10
   5  -3   2   76.29   25.40
   7   2  -2  478.85   37.80
   7   2  -2  559.14  133.59
   7   2  -2  500.15   47.00
  -7  -2   2  469.85   45.40
  -7  -2   2  580.34   44.50
  -7  -2   2  530.95   42.00
  -7  -2   2  549.65   44.80
  -7  -2   2  513.05  120.59
   6   2  -2  806.52   58.09
   6   2  -2  892.01  154.28
  -6  -2   2  760.92   56.49
  -6  -2   2  819.42   56.39
  -6  -2   2  867.11   54.59
  -6  -2   2  814.62   53.39
  -6  -2   2  805.92  140.09
   5   2  -2   14.60    8.20
   5   2  -2   19.50   20.20
  -5  -2   2    4.80    6.00
  -5  -2   2   26.20   26.70
  -5  -2   2   14.70    8.10
  -5  -2   2    7.20    5.90
  -5  -2   2    3.20    5.40
   4   2  -2  822.32   86.09
   4   2  -2  752.52   39.70
   4   2  -2  720.23   45.10
  -4  -2   2  712.83   82.19
  -4  -2   2  714.23   46.40
  -4  -2   2  681.13   44.30
  -4  -2   2  687.93   44.30
   3   2  -2 1207.28   56.59
   3   2  -2 1244.48   61.89
   3   2  -2 1121.89   90.49
  -3  -2   2 1207.68   95.89
  -3  -2   2 1192.48   64.59
  -3  -2   2 1141.09   64.29
  -3  -2   2 1176.88   59.09
  -3  -2   2 1185.48   61.59
   2   2  -2   65.59   17.60
  -2  -2   2   69.99    6.50
  -2  -2   2   71.29   19.70
  -2  -2   2   71.99   11.80
  -1  -2   2  455.75   26.40
   0   2  -2 1259.57   81.59
   0  -2   2 1246.18   58.39
  -1   2  -2   95.69    8.80
  -1   2  -2   99.49   15.00
  -1   2  -2   78.89   27.90
   1  -2   2  110.39   18.50
   1  -2   2   83.89    9.20
   1  -2   2   93.19   34.30
   1  -2   2   98.49   11.30
  -2   2  -2  141.69   46.40
  -2   2  -2  101.59   11.10
  -2   2  -2   98.99   17.50
   2  -2   2   92.39   17.60
   2  -2   2  110.49   41.20
   2  -2   2  107.19   12.10
  -3   2  -2   84.79   19.20
  -3   2  -2   97.09   37.40
  -3   2  -2  117.19   13.60
   3  -2   2  122.39   18.50
   3  -2   2   88.79   17.90
   3  -2   2  135.49   25.30
   3  -2   2   49.40   32.60
  -4   2  -2  157.28   28.70
  -4   2  -2  173.78   19.00
  -4   2  -2  126.19   47.00
   4  -2   2  130.89   24.20
   4  -2   2  180.78   33.50
   4  -2   2  194.58   72.39
   4  -2   2  147.09   22.80
  -5   2  -2   38.40   32.10
  -5   2  -2  100.09   18.60
  -5   2  -2   65.99   21.80
   5  -2   2   52.69   24.60
   5  -2   2  101.49   21.00
   5  -2   2  117.09   25.60
  -6   2  -2  100.99   30.50
  -6   2  -2  213.48   31.00
  -6   2  -2  154.08   72.29
   6  -2   2  151.18   81.29
   6  -2   2  215.18   42.30
   6  -2   2  148.29   29.00
   6  -2   2  200.38   36.60
   7   1  -2 1352.56  224.48
   7   1  -2 1082.49   69.69
   7   1  -2 1042.70   77.79
   7   1  -2  997.00   65.49
  -7  -1   2  670.43  147.89
  -7  -1   2 1102.79   70.19
  -7  -1   2 1048.00   68.99
  -7  -1   2 1050.39   66.49
  -7  -1   2  998.90   75.49
   6   1  -2   39.30   11.40
   6   1  -2   75.59   17.70
   6   1  -2   63.79   18.30
   6   1  -2   41.10   32.40
  -6  -1   2   48.30   16.30
  -6  -1   2    9.20   18.20
  -6  -1   2   53.79   12.70
  -6  -1   2   54.69   14.00
  -6  -1   2   57.19   14.20
   5   1  -2  962.60   58.49
   5   1  -2  975.90   56.29
   5   1  -2  994.60  120.09
   5   1  -2 1011.80   65.49
  -5  -1   2  987.10   61.39
  -5  -1   2  955.80   57.49
  -5  -1   2 1034.80   59.59
  -5  -1   2  932.31   62.89
  -5  -1   2 1181.48  128.29
   4   1  -2 3044.80  242.08
   4   1  -2 3140.09  147.29
   4   1  -2 3134.39  152.98
   4   1  -2 3031.70  143.99
  -4  -1   2 2996.30  145.49
  -4  -1   2 3191.98  218.68
  -4  -1   2 3139.49  151.58
  -4  -1   2 3100.99  146.39
   3   1  -2 1299.27  108.09
   3   1  -2 1360.96   64.09
  -3  -1   2 1288.07   68.59
  -3  -1   2 1314.27   65.49
  -3  -1   2 1295.07   65.09
  -3  -1   2 1221.58  106.09
   2   1  -2   52.39    8.00
   2   1  -2   39.40    4.60
   2   1  -2   38.10   15.90
  -2  -1   2   40.90    7.30
  -2  -1   2   44.80   17.20
  -2  -1   2   41.40    6.30
  -2  -1   2   40.30    7.20
   0  -1   2 2994.80  145.69
   0  -1   2 2994.80  136.89
  -1   1  -2  173.48   14.10
  -1   1  -2  264.27   44.80
  -1   1  -2  171.58   12.00
  -1   1  -2  169.58   16.20
   1  -1   2  166.08   14.10
   1  -1   2  270.37   48.80
   1  -1   2  193.68   17.40
   1  -1   2  182.38   12.90
  -2   1  -2  654.23   42.00
  -2   1  -2  626.44   35.50
  -2   1  -2  651.93   70.69
  -2   1  -2  650.63   40.40
   2  -1   2  633.44   42.90
   2  -1   2  642.84   36.30
   2  -1   2  597.44   39.10
   2  -1   2  612.44   73.39
  -3   1  -2 1285.47   74.49
  -3   1  -2 1292.37   66.99
  -3   1  -2 1251.07   73.49
  -3   1  -2 1174.18  116.89
   3  -1   2 1323.17   68.19
   3  -1   2 1299.17  130.39
   3  -1   2 1254.07   72.69
   3  -1   2 1212.68   75.49
  -4   1  -2   23.80   10.80
  -4   1  -2   14.10    7.80
  -4   1  -2   10.60    6.20
  -4   1  -2   -5.90    5.30
   4  -1   2    4.30   13.90
   4  -1   2   13.00   10.00
   4  -1   2    8.60    8.70
   4  -1   2    9.70    8.80
  -5   1  -2  163.28   29.80
  -5   1  -2  131.99   25.80
  -5   1  -2  194.78   75.79
  -5   1  -2  163.48   23.20
   5  -1   2  185.78   33.00
   5  -1   2  184.78   81.59
   5  -1   2  167.48   31.40
   5  -1   2  184.38   30.80
  -6   1  -2   95.89   24.50
  -6   1  -2  110.99   27.50
  -6   1  -2   46.70   34.40
  -6   1  -2  140.69   23.00
   6  -1   2  142.09   31.00
   6  -1   2  124.29   23.80
   6  -1   2  170.78   33.40
   7   0  -2  492.65   51.29
   7   0  -2  543.65   44.60
   7   0  -2  360.76  114.49
   7   0  -2  419.46   39.60
  -7   0   2  417.46   40.00
  -7   0   2  306.77   92.59
  -7   0   2  480.55   40.70
   6   0  -2  163.08   26.10
   6   0  -2  195.38   35.10
   6   0  -2  122.09   22.20
   6   0  -2  173.98   72.79
  -6   0   2  149.69   30.90
  -6   0   2  151.98   22.30
  -6   0   2  167.38   26.00
  -6   0   2  191.28   22.60
  -6   0   2  337.97  106.59
   5   0  -2 2273.47  117.39
   5   0  -2 2287.47  207.48
   5   0  -2 2240.88  125.49
   5   0  -2 2237.58  113.09
  -5   0   2 2066.09  197.48
  -5   0   2 2256.57  123.59
  -5   0   2 2207.08  112.69
  -5   0   2 2299.37  116.09
   4   0  -2 1780.72   87.99
   4   0  -2 1874.11  164.88
   4   0  -2 1784.82   97.99
   4   0  -2 1636.24   88.09
  -4   0   2 1722.53  158.48
  -4   0   2 1766.62   95.79
  -4   0   2 1722.23   87.59
  -4   0   2 1713.43   89.29
   3   0  -2   10.60    6.70
   3   0  -2    9.60    5.00
   3   0  -2   40.60   25.90
   3   0  -2    7.40    4.10
  -3   0   2   13.90    5.90
  -3   0   2   -2.70    7.80
  -3   0   2   14.10    5.00
  -3   0   2    7.80    5.80
   2   0  -2 3021.80  137.49
   2   0  -2 3114.19  144.19
   2   0  -2 3151.08  139.29
  -2   0   2 2999.60  143.19
  -2   0   2 3119.49  187.78
   0   0  -2   21.10    4.20
   0   0  -2   23.30    4.50
   0   0  -2   21.30    4.10
   0   0  -2   33.90   10.70
   0   0   2   15.90    3.70
   0   0   2   21.10    4.60
   0   0   2   15.90    3.80
   0   0   2   24.30   10.20
  -1   0  -2 1056.69   52.39
  -1   0  -2 1034.10   50.39
  -1   0  -2 1021.20   70.89
   1   0   2  985.90   49.80
   1   0   2 1055.49   73.99
   1   0   2  942.01   48.00
   1   0   2 1008.40   52.19
  -2   0  -2 2641.14  128.59
  -2   0  -2 2768.22  127.49
  -2   0  -2 2761.72  167.28
  -2   0  -2 2613.24  122.69
   2   0   2 2571.84  128.69
   2   0   2 2699.53  126.79
   2   0   2 2770.32  172.88
   2   0   2 2651.23  119.69
   2   0   2 2693.33  123.49
  -3   0  -2 2201.68  111.09
  -3   0  -2 2122.89   99.59
  -3   0  -2 2119.39  104.09
  -3   0  -2 2254.67  161.78
  -3   0  -2 2211.98  110.89
   3   0   2 2201.68  104.49
   3   0   2 2091.69  165.28
   3   0   2 2124.09  111.29
   3   0   2 2096.49  108.99
  -4   0  -2  219.18   24.30
  -4   0  -2  219.78   17.20
  -4   0  -2  261.67   25.80
  -4   0  -2  199.48   53.99
  -4   0  -2  214.78   20.50
   4   0   2  138.79   48.20
   4   0   2  224.48   25.80
  -5   0  -2  906.01   68.09
  -5   0  -2  854.31  113.29
  -5   0  -2  902.71   56.39
  -5   0  -2  866.31   62.49
   5   0   2  657.23  127.29
   5   0   2  939.91   63.79
   5   0   2  901.01   64.19
   5   0   2  862.21   55.29
  -6   0  -2  404.26   41.00
  -6   0  -2  350.86   93.59
  -6   0  -2  463.65   32.30
  -6   0  -2  469.35   37.80
   6   0   2  329.77   94.69
   6   0   2  422.76   37.00
   6   0   2  428.56   43.70
   6   0   2  481.45   46.30
  -7   0  -2    6.90    8.50
  -7   0  -2    2.30   18.10
  -7   0  -2   15.10    8.70
  -7   0  -2    9.30   11.20
  -7   0  -2   -1.40    8.60
   7   0   2  -10.30    4.70
   7   0   2   12.40   13.80
   6  -1  -2 1136.39   71.69
   6  -1  -2 1330.77  224.08
   6  -1  -2 1177.98   85.39
   6  -1  -2 1215.98   75.79
  -6   1   2 1153.88   70.49
  -6   1   2 1035.70   79.99
  -6   1   2 1138.79   72.49
  -6   1   2  786.22  149.29
   5  -1  -2 2009.60  204.48
   5  -1  -2 1959.80  106.69
   5  -1  -2 2102.39  132.69
   5  -1  -2 2063.09  110.59
  -5   1   2 2080.79  204.98
   4  -1  -2  401.26   36.60
   4  -1  -2  268.87   75.59
   4  -1  -2  382.66   30.50
   4  -1  -2  376.76   28.90
  -4   1   2  407.66   85.89
  -4   1   2  359.06   29.20
   3  -1  -2 1792.72   90.39
   3  -1  -2 1793.42   89.09
   3  -1  -2 1840.42  158.08
   3  -1  -2 1752.52   97.59
  -3   1   2 1862.91  158.48
  -3   1   2 1711.13   89.29
   2  -1  -2 4793.62  277.07
   2  -1  -2 4800.92  217.68
   2  -1  -2 4724.33  210.68
   2  -1  -2 4628.64  209.78
  -2   1   2 4502.65  215.58
  -2   1   2 4498.05  275.37
   1  -1  -2 1497.15   68.29
  -1   1   2 1499.15  111.29
  -1   1   2 1513.25   97.29
  -1   1   2 1546.85   73.49
  -1   1   2 1205.58   67.49
   0  -1  -2  433.66   27.90
   0  -1  -2  428.76   24.40
   0  -1  -2  454.65   44.10
   0   1   2  470.85   28.50
   0   1   2  456.25   44.10
   0   1   2  443.36   24.70
  -2  -1  -2 2815.12  188.98
  -2  -1  -2 2845.82  132.29
  -2  -1  -2 2790.52  131.79
  -2  -1  -2 2762.42  128.29
   2   1   2 2804.92  132.89
   2   1   2 2714.63  127.89
   2   1   2 2983.30  176.28
   2   1   2 2777.32  131.89
  -3  -1  -2  263.97   18.60
  -3  -1  -2  264.27   23.30
  -3  -1  -2  248.88   19.70
  -3  -1  -2  288.87   60.59
   3   1   2  260.37   23.00
   3   1   2  282.87   20.20
   3   1   2  260.57   18.60
   3   1   2  261.87   23.50
   3   1   2  295.17   60.49
  -4  -1  -2 2330.67  113.29
  -4  -1  -2 2223.38  119.09
  -4  -1  -2 2312.67  120.39
  -4  -1  -2 2435.26  181.38
  -4  -1  -2 2295.87  110.49
   4   1   2 2237.68  120.29
   4   1   2 2372.36  113.79
   4   1   2 2351.96  188.88
   4   1   2 2265.67  119.39
  -5  -1  -2 2646.04  136.59
  -5  -1  -2 2393.06  132.99
  -5  -1  -2 2588.24  207.38
  -5  -1  -2 2574.64  122.69
  -5  -1  -2 2280.07  132.49
   5   1   2 2899.11  229.78
   5   1   2 2476.55  125.29
  -6  -1  -2  304.07   36.40
  -6  -1  -2  349.27   30.50
  -6  -1  -2  244.78   68.49
  -6  -1  -2  327.47   35.10
  -6  -1  -2  323.37   27.00
   6   1   2  204.88   81.59
   6   1   2  271.67   39.10
   6   1   2  333.07   36.00
   6   1   2  378.06   36.80
  -7  -1  -2  353.46   96.89
  -7  -1  -2  449.16   33.70
  -7  -1  -2  355.36   50.49
  -7  -1  -2  282.57   46.40
  -7  -1  -2  343.77   34.00
   7   1   2  237.88   96.39
   7   1   2  300.07   33.10
   7   1   2  448.06   48.40
   7   1   2  461.05   46.30
   6  -2  -2 1493.05  105.99
   6  -2  -2 1616.24   97.89
   6  -2  -2 1361.26   89.19
  -6   2   2 1260.47   98.39
  -6   2   2 1630.24   87.29
  -6   2   2 1530.85   91.29
   5  -2  -2  627.64   56.69
   5  -2  -2  711.53   52.59
   5  -2  -2  625.04   47.40
  -5   2   2  620.74  145.79
  -5   2   2  609.24   46.50
  -5   2   2  619.44   55.09
   4  -2  -2  416.96   40.80
   4  -2  -2  398.66   32.50
   4  -2  -2  365.06   34.50
  -4   2   2  409.16   38.90
  -4   2   2  478.85  111.29
  -4   2   2  402.76   32.60
   3  -2  -2 3654.13  184.68
   3  -2  -2 4010.40  191.98
   3  -2  -2 3785.52  179.78
  -3   2   2 3951.00  277.17
  -3   2   2 3726.93  188.48
   2  -2  -2 2582.54  125.29
   2  -2  -2 2614.34  128.79
  -2   2   2 2681.83  125.79
  -2   2   2 2644.34  199.08
  -2   2   2 2597.54  133.39
   1  -2  -2  166.18   18.40
   1  -2  -2  143.19   12.90
  -1   2   2  134.89   15.90
  -1   2   2  175.08   51.89
  -1   2   2  136.09   12.90
  -1   2   2  148.19   48.90
   0  -2  -2 5201.78  264.37
   0   2   2 4757.32  226.78
   0   2   2 4856.31  262.67
  -1  -2  -2 8388.86  415.66
   1   2   2 8000.20  414.36
  -2  -2  -2  864.61   52.09
  -2  -2  -2  877.51   50.59
  -2  -2  -2  886.71   46.90
  -2  -2  -2  930.51   48.90
  -2  -2  -2  887.41   84.59
   2   2   2  966.20   87.99
   2   2   2  909.21   48.00
   2   2   2  939.01   47.30
   2   2   2  875.01   52.09
  -3  -2  -2 2190.08  106.69
  -3  -2  -2 2184.18  111.09
  -3  -2  -2 2336.47  163.48
  -3  -2  -2 2165.28  105.29
   3   2   2 2232.38  105.99
   3   2   2 2255.47  112.89
   3   2   2 2247.18  161.98
   3   2   2 2253.47  113.09
   3   2   2 2171.28  105.49
  -4  -2  -2 4327.77  199.78
  -4  -2  -2 4407.26  208.78
  -4  -2  -2 4397.66  201.28
  -4  -2  -2 4249.88  272.57
  -4  -2  -2 4321.37  207.08
   4   2   2 4280.17  199.68
   4   2   2 4413.06  200.48
   4   2   2 4270.97  278.47
  -5  -2  -2 1575.24   83.79
  -5  -2  -2 1642.64   82.39
  -5  -2  -2 1336.67  141.89
  -5  -2  -2 1458.15   89.79
  -5  -2  -2 1493.05   88.79
   5   2   2 1526.85   90.19
   5   2   2 1563.14   82.19
   5   2   2 1539.45   91.39
   5   2   2 1629.44  160.48
  -6  -2  -2  460.65   42.80
  -6  -2  -2  500.65  117.49
  -6  -2  -2  460.75   36.30
  -6  -2  -2  405.46   32.80
  -6  -2  -2  435.76   40.60
   6   2   2  442.26   41.80
   6   2   2  422.76   34.20
   6   2   2  580.24  134.59
  -7  -2  -2 1398.36   95.49
  -7  -2  -2 1357.86   83.19
  -7  -2  -2 1299.37  162.88
  -7  -2  -2 1411.36   80.39
  -7  -2  -2 1326.97   91.29
   7   2   2 1297.87   80.79
   7   2   2 1427.96   93.99
   7   2   2 1468.05   94.69
  -8  -2  -2  577.54   60.09
  -8  -2  -2  760.52   59.69
  -8  -2  -2  738.53   52.59
  -8  -2  -2  784.12  175.28
   8   2   2  682.33   64.59
   8   2   2  822.32   67.39
   5  -3  -2   27.60   16.70
   5  -3  -2   18.50   11.60
   5  -3  -2   32.10   16.70
  -5   3   2   41.30   13.10
  -5   3   2    8.80   10.90
  -5   3   2   10.20   21.20
   4  -3  -2 1817.42  111.29
   4  -3  -2 1684.23  105.89
   4  -3  -2 1714.63  104.39
  -4   3   2 1762.32   96.39
  -4   3   2 1644.14  107.39
  -4   3   2 1864.71  195.98
   3  -3  -2 3599.94  188.28
   3  -3  -2 3692.93  192.18
   3  -3  -2 3772.02  180.08
  -3   3   2 4012.90  187.18
  -3   3   2 3622.34  253.57
  -3   3   2 3912.91  290.67
  -3   3   2 3575.74  190.88
   2  -3  -2  318.47   28.80
   2  -3  -2  279.97   23.70
   2  -3  -2  295.57   30.70
  -2   3   2  288.87   29.80
  -2   3   2  234.38   62.19
  -2   3   2  289.37   24.10
  -2   3   2  253.57   71.49
   1  -3  -2 2808.92  134.39
   1  -3  -2 2939.61  145.79
  -1   3   2 2840.72  133.89
  -1   3   2 2829.62  144.29
  -1   3   2 2667.83  134.79
  -1   3   2 2982.10  213.98
   0  -3  -2 6831.42  350.06
   0  -3  -2 6248.38  301.77
   0   3   2 6596.04  304.67
   0   3   2 6627.94  354.46
   0   3   2 6513.45  292.57
  -1  -3  -2 3250.17  149.09
  -1  -3  -2 3185.98  148.99
  -1  -3  -2 3230.58  200.08
  -1  -3  -2 2863.31  155.98
   1   3   2 3393.26  147.99
   1   3   2 3285.97  147.39
   1   3   2 3091.99  153.28
   1   3   2 3136.69  208.88
  -2  -3  -2 2344.57  108.39
  -2  -3  -2 1932.71  160.38
  -2  -3  -2 2347.07  113.59
  -2  -3  -2 2181.68  111.99
   2   3   2 2280.87  109.89
   2   3   2 2244.98  106.99
   2   3   2 2324.77  109.59
   2   3   2 2050.29  160.78
  -3  -3  -2 5448.75  262.27
  -3  -3  -2 5520.35  329.37
  -3  -3  -2 5764.62  262.47
   3   3   2 5840.72  329.07
   3   3   2 5905.41  255.37
   3   3   2 5446.15  261.07
  -4  -3  -2 3696.33  173.98
  -4  -3  -2 3525.75  246.08
  -4  -3  -2 3854.11  182.38
  -4  -3  -2 3554.14  180.28
   4   3   2 3735.03  183.18
   4   3   2 3727.03  174.28
   4   3   2 3743.13  172.78
   4   3   2 3726.03  248.38
  -5  -3  -2  260.77   27.70
  -5  -3  -2  255.17   23.90
  -5  -3  -2  191.68   81.39
  -5  -3  -2  239.88   22.80
  -5  -3  -2  215.78   31.50
   5   3   2  240.18   21.80
   5   3   2  259.37   23.80
   5   3   2  243.28   28.00
  -6  -3  -2 2364.96  208.68
  -6  -3  -2 2363.86  130.49
  -6  -3  -2 2206.88  127.19
  -6  -3  -2 2402.16  121.69
   6   3   2 2395.96  215.78
   6   3   2 2236.18  117.19
   6   3   2 2342.97  131.39
  -7  -3  -2 1899.71  198.38
  -7  -3  -2 1864.81  115.89
  -7  -3  -2 1866.11  121.29
  -7  -3  -2 2195.78  109.09
  -7  -3  -2 1901.01  107.79
   7   3   2 1651.93  195.08
   7   3   2 1950.90  120.59
   7   3   2 1927.41  105.59
  -8  -3  -2  104.79   30.20
  -8  -3  -2  125.59   66.79
  -8  -3  -2  104.19   28.30
  -8  -3  -2  139.29   23.50
  -8  -3  -2  150.28   25.00
   8   3   2   46.50   40.20
   8   3   2  141.99   31.60
   4  -4  -2 1232.98   88.39
   4  -4  -2 1037.60   71.79
   4  -4  -2 1219.88   85.79
  -4   4   2 1182.18   73.79
  -4   4   2 1250.77  147.99
  -4   4   2 1269.17  168.48
  -4   4   2 1084.09   84.99
   3  -4  -2  384.16   41.00
   3  -4  -2  383.26   39.90
   3  -4  -2  381.96   33.50
  -3   4   2  296.87   92.29
  -3   4   2  522.35  113.79
  -3   4   2  340.67   39.80
  -3   4   2  400.26   31.80
   2  -4  -2  692.03   46.70
   2  -4  -2  777.62   54.99
   2  -4  -2  736.93   56.59
  -2   4   2  712.33   57.29
  -2   4   2  724.63  143.99
  -2   4   2  834.32  135.29
  -2   4   2  627.84   44.20
  -2   4   2  685.33   44.20
   1  -4  -2 4405.76  216.18
   1  -4  -2 4297.27  203.28
  -1   4   2 4307.27  216.18
  -1   4   2 4555.84  305.47
  -1   4   2 4341.97  289.27
  -1   4   2 4382.26  201.58
  -1   4   2 4166.58  199.58
   0  -4  -2 3009.20  141.59
   0  -4  -2 2951.90  151.98
   0   4   2 3014.90  139.19
   0   4   2 2710.63  150.98
   0   4   2 2885.71  208.28
  -1  -4  -2   43.50   11.20
  -1  -4  -2   56.99   12.20
  -1  -4  -2   28.50   17.60
   1   4   2   36.10   11.80
   1   4   2   57.69   32.00
   1   4   2   46.00    9.50
   1   4   2   50.59    9.30
  -2  -4  -2 3602.24  176.68
  -2  -4  -2 3611.84  189.68
  -2  -4  -2 3809.12  242.78
  -2  -4  -2 3871.71  173.98
   2   4   2 3697.43  174.98
   2   4   2 3811.52  172.08
   2   4   2 3335.87  244.68
   2   4   2 3635.64  170.98
  -3  -4  -2 6406.76  290.97
  -3  -4  -2 5949.50  292.87
  -3  -4  -2 5365.96  363.36
  -3  -4  -2 6373.86  285.27
   3   4   2 6334.87  283.97
   3   4   2 6354.86  369.86
   3   4   2 6586.74  284.57
   3   4   2 6525.05  287.07
  -4  -4  -2  261.17   24.80
  -4  -4  -2  277.17   24.20
  -4  -4  -2  249.38   26.60
  -4  -4  -2  249.18   26.90
  -4  -4  -2  239.18   65.59
   4   4   2  315.97   23.20
   4   4   2  231.18   65.79
   4   4   2  251.77   22.90
   4   4   2  266.17   26.10
  -5  -4  -2 2598.64  140.99
  -5  -4  -2 2715.13  144.09
  -5  -4  -2 2743.23  135.49
  -5  -4  -2 2533.95  212.48
   5   4   2 2682.13  142.89
   5   4   2 2774.92  216.88
   5   4   2 2738.23  131.79
   5   4   2 2715.93  135.39
  -6  -4  -2 2198.88  114.49
  -6  -4  -2 1879.41  189.58
  -6  -4  -2 2131.39  121.79
   6   4   2 2119.69  113.99
   6   4   2 1989.50  193.18
   6   4   2 2103.29  122.59
   6   4   2 2161.68  109.09
  -7  -4  -2  767.02   61.39
  -7  -4  -2  714.13   60.49
  -7  -4  -2  794.92   55.59
  -7  -4  -2  772.32   54.39
  -7  -4  -2  674.33  142.99
   7   4   2  744.23   62.89
   7   4   2  735.93  148.69
   7   4   2  738.13   53.79
  -8  -4  -2  155.68   26.40
  -8  -4  -2  170.28   38.40
  -8  -4  -2  146.29   34.10
  -8  -4  -2  217.78   26.10
  -8  -4  -2   59.19   47.00
   8   4   2  142.19   33.40
   8   4   2   46.60   49.40
   8   4   2  107.89   22.50
   3  -5  -2   23.50   12.80
   3  -5  -2   27.70   20.60
   3  -5  -2   29.50   16.50
  -3   5   2   10.70   25.10
  -3   5   2   26.50   13.40
  -3   5   2   24.00   35.60
  -3   5   2   23.40   17.70
   2  -5  -2  649.24   48.80
   2  -5  -2  689.23   58.29
   2  -5  -2  640.94   55.09
  -2   5   2  619.44  125.69
  -2   5   2  667.43   42.90
  -2   5   2  727.63   47.80
  -2   5   2  724.53   63.49
  -2   5   2  629.04  128.69
   1  -5  -2 1698.43  108.49
  -1   5   2 1852.41  185.58
  -1   5   2 1893.41   96.19
  -1   5   2 1759.92  111.49
  -1   5   2 1867.21  173.88
  -1   5   2 1819.62   92.09
   0  -5  -2   28.20    8.50
   0  -5  -2   11.00    9.20
   0   5   2   15.30   23.60
   0   5   2   31.00   14.80
   0   5   2   26.70   24.50
   0   5   2   29.50    8.20
   0   5   2   24.10    7.50
  -1  -5  -2 2295.67  173.18
  -1  -5  -2 2105.39  123.89
  -1  -5  -2 2380.36  117.09
   1   5   2 2283.47  121.99
   1   5   2 2145.99  192.08
   1   5   2 2191.88  110.39
   1   5   2 2368.06  111.69
  -2  -5  -2 2054.89  108.19
  -2  -5  -2 1909.81  114.99
  -2  -5  -2 2086.59  105.59
  -2  -5  -2 2029.90  167.48
   2   5   2 1992.20  101.29
   2   5   2 2015.50  100.59
   2   5   2 2096.89  106.89
  -3  -5  -2  733.53   48.20
  -3  -5  -2  744.93   53.99
  -3  -5  -2  651.03  121.19
  -3  -5  -2  694.13   54.19
   3   5   2  805.02   47.60
   3   5   2  833.22   47.40
   3   5   2  717.73   45.80
  -4  -5  -2  919.91   64.39
  -4  -5  -2  961.40   63.09
  -4  -5  -2  987.90   58.69
  -4  -5  -2  547.25  111.69
   4   5   2  962.40   54.79
   4   5   2  954.20   57.39
   4   5   2  960.40   57.39
  -5  -5  -2 3084.79  166.28
  -5  -5  -2 2715.53  241.38
  -5  -5  -2 3351.86  158.58
  -5  -5  -2 3153.98  163.78
  -5  -5  -2 3198.38  160.88
   5   5   2 2996.90  243.68
   5   5   2 3204.88  159.78
  -6  -5  -2 1299.87   90.19
  -6  -5  -2 1500.35   84.79
  -6  -5  -2 1441.36   89.39
  -6  -5  -2 1141.59  148.19
  -6  -5  -2 1463.65   85.59
   6   5   2 1408.86   87.29
   6   5   2 1436.46  156.58
  -7  -5  -2    5.40   11.70
  -7  -5  -2   23.90   14.20
  -7  -5  -2    7.20    7.90
  -7  -5  -2   24.90   30.30
  -7  -5  -2   17.20   11.20
   7   5   2   15.80   12.60
   7   5   2    6.10    5.90
   7   5   2    2.50   14.90
  -8  -5  -2 1451.15   98.99
  -8  -5  -2 1566.34   92.59
  -8  -5  -2 1377.26  100.19
  -8  -5  -2 1186.48  280.47
  -8  -5  -2 1483.45   92.49
   8   5   2 1327.77   83.39
   8   5   2 1537.35  101.19
   2  -6  -2  457.65   47.70
   2  -6  -2  423.96   40.10
   2  -6  -2  518.45   51.39
  -2   6   2  501.55   38.90
  -2   6   2  294.47   89.79
  -2   6   2  346.87   56.49
  -2   6   2  467.05  121.59
   1  -6  -2  184.78   28.70
   1  -6  -2  184.58   42.60
   1  -6  -2  242.88   46.20
  -1   6   2  178.08   64.69
  -1   6   2  185.18   37.00
  -1   6   2  340.27  101.69
  -1   6   2  245.18   24.10
   0  -6  -2  156.28   25.40
   0  -6  -2  172.08   30.50
   0   6   2  151.08   67.89
   0   6   2  150.68   16.30
   0   6   2  122.29   28.10
   0   6   2  117.39   54.89
   0   6   2  160.28   18.20
  -1  -6  -2  984.10   69.99
  -1  -6  -2  910.11   61.19
   1   6   2  953.20   54.89
   1   6   2  938.91   54.79
  -2  -6  -2  996.00  109.69
  -2  -6  -2 1007.50   65.59
  -2  -6  -2  964.80   70.69
   2   6   2 1006.90   56.89
   2   6   2 1037.10  134.69
   2   6   2  946.91   57.09
  -3  -6  -2  106.29   45.20
  -3  -6  -2   94.09   18.10
  -3  -6  -2   62.29   17.20
  -3  -6  -2   68.99   20.30
   3   6   2   69.69   45.00
   3   6   2   73.59   14.20
  -4  -6  -2 1631.44  102.99
  -4  -6  -2 1744.13  168.98
  -4  -6  -2 1726.83   94.59
  -4  -6  -2 1647.14  101.89
   4   6   2 1462.05  159.18
   4   6   2 1714.93   92.09
  -5  -6  -2 1055.09   72.49
  -5  -6  -2 1153.28  192.98
  -5  -6  -2 1111.09   73.49
  -5  -6  -2  982.40   74.19
  -5  -6  -2 1085.69   67.19
   5   6   2  647.94  123.39
  -6  -6  -2   37.80   13.30
  -6  -6  -2    1.40    7.90
  -6  -6  -2   31.90   32.90
  -6  -6  -2   16.10   11.10
  -6  -6  -2   17.90   10.50
   6   6   2   19.50   10.80
   6   6   2   18.00    7.30
   6   6   2   20.60   32.20
   6   6   2   28.60   11.70
  -7  -6  -2  945.91   64.09
  -7  -6  -2  759.32   67.79
  -7  -6  -2  746.43  158.08
  -7  -6  -2  847.62   71.19
  -7  -6  -2  823.82   62.99
   7   6   2  923.81   64.09
   7   6   2  791.12   53.39
  -8  -6  -2  982.20   85.39
  -8  -6  -2 1278.87   81.99
  -8  -6  -2 1136.39   80.29
  -8  -6  -2 1177.38   86.09
   8   6   2 1152.28   81.09
   1  -7  -2    5.60   10.50
   1  -7  -2   19.10   14.30
   1  -7  -2   -6.80    6.60
  -1   7   2   13.70   30.90
  -1   7   2   16.00    9.30
   0  -7  -2  150.38   29.90
   0   7   2  155.08   22.50
   0   7   2   84.89   62.09
   0   7   2   97.59   34.70
   0   7   2   79.09   49.80
  -1  -7  -2  643.94   53.69
  -1  -7  -2  492.05   43.60
   1   7   2  421.16  107.89
   1   7   2  516.25   39.50
   1   7   2  361.46   98.99
   1   7   2  474.75   43.80
   1   7   2  511.65   36.50
  -2  -7  -2   44.20   16.80
  -2  -7  -2   24.40   15.50
  -2  -7  -2   79.89   28.90
   2   7   2   58.59   48.60
   2   7   2   61.09   13.50
   2   7   2   45.10   12.90
   2   7   2   56.39   15.70
  -3  -7  -2  327.37   80.29
  -3  -7  -2  408.76   36.10
  -3  -7  -2  372.86   41.90
  -3  -7  -2  348.77   38.30
   3   7   2  336.87   33.90
   3   7   2  369.76   28.50
   3   7   2  453.65  111.19
  -4  -7  -2  637.34   62.59
  -4  -7  -2  765.42   54.19
  -4  -7  -2  552.74  109.89
  -4  -7  -2  721.73   59.89
   4   7   2  777.32   46.20
   4   7   2  612.44  123.39
   4   7   2  674.33   45.60
  -5  -7  -2  361.56   90.89
  -5  -7  -2  497.35   50.19
  -5  -7  -2  559.44   45.00
  -5  -7  -2  489.05   47.80
   5   7   2  471.85   35.60
   5   7   2  444.26  106.49
   5   7   2  459.35   48.80
   5   7   2  485.65   35.10
  -6  -7  -2   77.19   45.90
  -6  -7  -2   92.09   25.50
  -6  -7  -2  127.59   24.20
  -6  -7  -2  107.39   25.50
  -6  -7  -2   88.59   23.10
   6   7   2   93.99   50.39
   6   7   2   67.99   14.10
   6   7   2   96.19   21.60
   6   7   2  108.09   19.50
  -7  -7  -2  882.11   62.19
  -7  -7  -2  567.44   64.19
  -7  -7  -2  792.92   63.29
  -7  -7  -2  802.22   63.99
  -7  -7  -2  768.62  156.98
   7   7   2  597.34  125.49
   7   7   2  738.33   52.99
   7   7   2  661.93   47.60
  -1  -8  -2  161.78   31.80
  -1  -8  -2  214.78   39.20
   1   8   2  129.19   32.10
   1   8   2   69.29   48.90
   1   8   2  240.88   23.50
  -2  -8  -2   10.10   12.90
  -2  -8  -2   13.30   12.10
   2   8   2    4.30    7.50
   2   8   2   -0.70    4.60
   2   8   2   54.59   48.80
   2   8   2    0.30   35.90
   2   8   2    0.30    4.50
  -3  -8  -2  261.97   42.40
  -3  -8  -2  240.18   42.30
  -3  -8  -2  198.18   32.80
   3   8   2  185.38   23.40
   3   8   2  212.38   23.80
   3   8   2  135.59   64.39
   3   8   2  211.58   20.70
  -4  -8  -2  176.78   35.00
  -4  -8  -2  192.78   37.70
  -4  -8  -2  168.68   55.99
   4   8   2  205.68   25.00
   4   8   2  173.68   19.10
   4   8   2  131.09   21.90
   4   8   2  217.18   74.19
  -5  -8  -2   51.79   39.10
  -5  -8  -2   30.40   18.20
  -5  -8  -2   33.90   19.20
  -5  -8  -2   79.99   21.50
   5   8   2   28.80   33.50
   5   8   2   21.80    9.10
   5   8   2   29.10    9.80
   5   8   2   35.20   13.20
  -6  -8  -2  220.78   39.80
  -6  -8  -2   83.99   57.89
  -6  -8  -2  165.48   33.50
  -6  -8  -2  103.39   32.70
  -6  -8  -2  214.18   34.50
   6   8   2  218.38   78.29
   6   8   2  139.49   20.30
   6   8   2  176.38   31.50
   6   8   2  200.88   21.60
  -5  -7   3  153.88   24.40
  -5  -7   3  129.09   24.80
  -4  -7   3  102.19   18.20
  -4  -7   3  102.59   21.30
  -3  -7   3   51.69   12.40
  -3  -7   3   33.00   12.40
  -2  -7   3  215.18   25.20
   6   6  -3  780.92   83.69
  -6  -6   3  583.94   73.29
  -6  -6   3  669.43   53.89
  -6  -6   3  793.72   51.99
  -6  -6   3  632.24   69.09
  -6  -6   3  618.64   46.70
  -5  -6   3  626.44   42.80
  -5  -6   3  467.25   35.50
  -5  -6   3  537.75   61.99
  -4  -6   3   13.60    7.20
  -4  -6   3    5.10    8.00
  -3  -6   3  619.64   40.80
  -3  -6   3  620.44   44.50
  -3  -6   3  604.04   41.40
  -2  -6   3  301.77   26.40
  -2  -6   3  353.86   28.40
   1   6  -3   81.89   32.40
   1   6  -3   44.70   27.60
  -1  -6   3   86.09   17.80
  -1  -6   3   77.79   19.10
  -1  -6   3   78.09   15.20
   0   6  -3   74.89   35.90
   0   6  -3   66.19   39.20
   0  -6   3  112.59   20.80
   0  -6   3  117.49   26.30
   0  -6   3   98.49   20.70
  -1   6  -3  300.37   79.09
  -1   6  -3  249.38   71.09
   1  -6   3  375.26   44.40
   1  -6   3  377.06   35.40
   1  -6   3  384.96   54.89
  -7  -5   3  659.43   49.99
  -7  -5   3  714.53   55.79
  -7  -5   3  676.63   49.99
  -7  -5   3  630.54   53.79
   6   5  -3 1050.19  136.29
  -6  -5   3 1107.39   77.79
  -6  -5   3 1108.29   67.39
  -6  -5   3 1178.28   75.19
  -6  -5   3 1179.48   69.09
   5   5  -3   68.79   28.50
  -5  -5   3  119.69   21.80
  -5  -5   3   97.89   15.90
  -5  -5   3   92.59   35.80
  -5  -5   3   97.79   16.70
  -4  -5   3  585.44   37.10
  -4  -5   3  591.64   43.90
  -4  -5   3  625.34   40.40
  -3  -5   3 1434.66   74.39
  -3  -5   3 1409.76   79.19
  -2  -5   3  971.80   55.69
  -2  -5   3 1025.50   58.19
  -2  -5   3 1024.30   55.79
   1   5  -3  229.58   52.39
   1   5  -3  232.98   46.00
  -1  -5   3  198.78   18.90
   0   5  -3  896.01   91.09
   0   5  -3  974.20   99.89
   0  -5   3  809.32   53.29
   0  -5   3  883.31   52.59
   0  -5   3  901.21   62.69
  -1   5  -3  254.67   67.49
  -1   5  -3  190.58   58.69
   1  -5   3  221.18   24.40
   1  -5   3  215.68   23.70
   1  -5   3  183.08   31.10
  -2   5  -3   10.90   18.40
  -2   5  -3   16.20    7.80
  -2   5  -3   56.49   41.80
  -2   5  -3   20.50   11.80
   2  -5   3    4.00    5.40
   2  -5   3   42.40   17.50
   2  -5   3   11.70    9.50
   7   4  -3 1472.15  155.08
   7   4  -3 1402.96   83.49
  -7  -4   3 1325.47   82.99
  -7  -4   3 1362.16   87.09
  -7  -4   3 1341.37  153.38
  -7  -4   3 1322.57   80.89
   6   4  -3 1090.79  116.79
   6   4  -3 1071.09   53.39
   6   4  -3  941.71   63.19
  -6  -4   3 1017.80   67.09
  -6  -4   3 1029.70   64.49
  -6  -4   3 1037.50   63.89
  -6  -4   3 1067.89  119.59
  -6  -4   3  929.91   80.39
   5   4  -3  263.87   58.39
  -5  -4   3  283.47   29.00
  -5  -4   3  277.07   24.20
  -5  -4   3  363.06   70.99
  -5  -4   3  284.27   23.90
  -5  -4   3  279.77   36.60
   4   4  -3 2227.28  137.09
  -4  -4   3 2080.79  140.99
  -4  -4   3 2109.19  110.39
  -4  -4   3 2044.10  102.19
  -4  -4   3 2038.50  101.69
  -3  -4   3 1014.70   59.19
  -3  -4   3 1007.80   52.59
  -2  -4   3    7.80    5.80
   1   4  -3 1803.72  113.49
   1   4  -3 1838.32  106.99
  -1  -4   3 1661.83   81.99
  -1  -4   3 1489.85   80.19
   0   4  -3 1945.91  133.19
   0   4  -3 1643.24  122.09
   0  -4   3 1669.63   83.89
   0  -4   3 1672.93   86.69
   0  -4   3 1651.93   95.09
  -1   4  -3  150.28   13.00
  -1   4  -3  126.79   20.10
  -1   4  -3  150.08   48.00
  -1   4  -3  172.58   49.90
   1  -4   3  123.29   14.80
   1  -4   3  139.29   21.10
   1  -4   3  157.88   26.40
  -2   4  -3  435.86   89.59
  -2   4  -3  425.26   87.29
  -2   4  -3  422.06   28.80
  -2   4  -3  415.36   35.90
   2  -4   3  362.16   31.00
   2  -4   3  449.95   37.00
   2  -4   3  354.36   38.90
  -3   4  -3  901.41   54.19
  -3   4  -3  582.54  111.89
  -3   4  -3  900.11   64.19
   3  -4   3  924.61   63.99
   3  -4   3  886.81   70.59
   3  -4   3  878.81   58.59
  -4   4  -3  162.98   25.50
  -4   4  -3  157.88   63.89
   4  -4   3  157.38   28.80
   4  -4   3  159.88   30.90
   4  -4   3  186.48   41.30
   7   3  -3 1031.90   68.59
   7   3  -3  992.50  228.68
  -7  -3   3  978.90   64.29
  -7  -3   3  986.30  207.08
  -7  -3   3  989.80   68.99
  -7  -3   3  976.70   64.69
  -7  -3   3  932.51   66.79
   6   3  -3   27.20    8.70
   6   3  -3   17.10   20.30
   6   3  -3   21.80   10.50
  -6  -3   3   12.80    8.30
  -6  -3   3   23.50   10.60
  -6  -3   3   31.30   11.30
  -6  -3   3   31.90   30.40
  -6  -3   3   25.80    9.80
   5   3  -3 2027.00   95.09
   5   3  -3 2259.67  166.78
   5   3  -3 2002.50  101.99
  -5  -3   3 1952.40  100.79
  -5  -3   3 1898.41  160.58
  -5  -3   3 1992.90  104.49
  -5  -3   3 1926.51  105.49
   4   3  -3 3592.64  211.08
  -4  -3   3 3549.04  170.38
  -4  -3   3 3525.65  170.48
  -4  -3   3 3315.97  212.78
  -4  -3   3 3477.25  163.08
  -4  -3   3 3448.46  161.08
   3   3  -3  566.14   49.00
  -3  -3   3  475.25   49.00
  -3  -3   3  490.35   28.70
  -3  -3   3  515.95   29.70
  -2  -3   3 1806.12   90.39
  -1  -3   3 3558.14  162.08
   0   3  -3  895.51   70.99
   0   3  -3  912.91   72.79
   0  -3   3  830.42   46.10
   0  -3   3  853.11   44.00
   0  -3   3  823.72   52.99
  -1   3  -3  250.37   20.80
  -1   3  -3  208.58   15.40
  -1   3  -3  231.48   52.49
   1  -3   3  226.78   24.10
   1  -3   3  200.48   19.40
   1  -3   3  211.88   17.70
  -2   3  -3 2213.88  116.19
  -2   3  -3 2192.68  171.38
  -2   3  -3 2221.08  107.69
   2  -3   3 2247.18  111.09
   2  -3   3 2160.48  123.09
   2  -3   3 2317.97  116.69
  -3   3  -3 1217.48  131.89
   3  -3   3 1277.17   84.69
   3  -3   3 1199.18   76.09
   3  -3   3 1228.98   71.09
  -4   3  -3    4.90    6.20
  -4   3  -3    3.00    8.00
  -4   3  -3    3.70   15.00
   4  -3   3   -4.70   14.00
   4  -3   3    4.60    6.80
   4  -3   3    5.90   12.80
   4  -3   3    3.40    8.40
  -5   3  -3  534.55  137.19
  -5   3  -3  336.67   55.39
  -5   3  -3  539.75   41.50
   5  -3   3  541.25   56.19
   5  -3   3  458.95   42.20
   5  -3   3  527.35   50.19
   7   2  -3   75.49   19.50
   7   2  -3   45.40   13.90
  -7  -2   3   76.29   18.60
  -7  -2   3   96.49   19.50
  -7  -2   3   72.19   18.70
  -7  -2   3   51.59   47.70
   6   2  -3 1071.39  131.69
  -6  -2   3 1102.09   63.29
  -6  -2   3 1131.49  135.29
  -6  -2   3 1031.00   69.59
  -6  -2   3 1082.09   70.09
  -6  -2   3 1120.79   66.69
   5   2  -3 2573.24  128.39
   5   2  -3 2730.13  133.99
   5   2  -3 2648.83  202.68
  -5  -2   3 2636.54  129.79
  -5  -2   3 2590.04  133.49
  -5  -2   3 2614.54  204.48
  -5  -2   3 2678.23  137.29
   4   2  -3  992.80   58.39
   4   2  -3 1149.08   54.49
  -4  -2   3 1081.39   59.59
  -4  -2   3 1051.69   57.19
  -4  -2   3 1060.59   64.29
   3   2  -3 1002.30   81.99
  -3  -2   3 1043.90   59.99
  -3  -2   3 1016.90   53.99
  -3  -2   3 1060.29   52.39
  -3  -2   3 1031.10   85.29
   0   2  -3   19.70   10.60
   0  -2   3   22.90    4.00
   0  -2   3   19.80    4.60
   0  -2   3   20.90    7.10
  -1   2  -3 5343.97  237.08
  -1   2  -3 5521.35  280.67
   1  -2   3 5298.57  291.47
   1  -2   3 5283.47  234.08
   1  -2   3 4792.22  254.67
   1  -2   3 5231.68  237.58
  -2   2  -3 4281.07  257.27
  -2   2  -3 4013.00  192.98
  -2   2  -3 4539.75  201.98
   2  -2   3 4149.18  271.87
   2  -2   3 4283.97  200.08
  -3   2  -3  270.47   74.29
  -3   2  -3  242.08   20.90
   3  -2   3  245.68   22.50
   3  -2   3  262.27   36.80
   3  -2   3  238.18   25.20
   3  -2   3  281.27   79.29
  -4   2  -3  359.86   90.09
  -4   2  -3  421.56   32.60
  -4   2  -3  443.06   40.90
   4  -2   3  426.36   39.50
   4  -2   3  421.56   42.30
   4  -2   3  377.36   33.10
  -5   2  -3 1621.24   90.39
  -5   2  -3 1545.65  102.89
  -5   2  -3 1540.55  173.48
   5  -2   3 1562.24  195.58
   5  -2   3 1744.73  109.99
   5  -2   3 1675.43  138.09
   5  -2   3 1545.45   92.69
  -6   2  -3  336.07   53.79
  -6   2  -3  336.47   96.69
   6  -2   3  502.65   49.50
   6  -2   3  346.07   38.50
   6  -2   3  481.85   64.39
   6  -2   3  370.26  121.99
   7   1  -3  212.48   36.90
   7   1  -3  168.18   25.90
   7   1  -3  156.58   70.89
  -7  -1   3  215.18   89.99
  -7  -1   3  190.48   28.40
  -7  -1   3  226.58   27.50
  -7  -1   3  168.98   32.20
  -7  -1   3  169.08   22.80
   6   1  -3 1880.31  193.78
   6   1  -3 2036.00  109.29
   6   1  -3 2091.49  117.69
  -6  -1   3 1950.60  147.09
  -6  -1   3 1913.11  195.78
  -6  -1   3 2046.90  103.59
  -6  -1   3 2103.29  110.29
  -6  -1   3 2025.20  113.39
   5   1  -3 1474.35   86.79
  -5  -1   3 1545.25   82.09
  -5  -1   3 1295.57  143.39
  -5  -1   3 1493.75   77.09
  -5  -1   3 1475.15   86.09
  -5  -1   3 1523.05   87.19
   4   1  -3    8.90   13.00
   4   1  -3   -0.10    2.20
  -4  -1   3   11.20   21.00
  -4  -1   3    3.50    4.60
  -4  -1   3    3.90    4.50
  -4  -1   3    7.10    4.70
   3   1  -3 6206.98  337.17
   3   1  -3 6430.26  278.77
   3   1  -3 6257.87  284.17
  -3  -1   3 6211.68  284.47
  -3  -1   3 6492.75  342.47
   2   1  -3 6207.08  305.27
   2   1  -3 5608.94  259.27
  -2  -1   3 5997.40  296.17
   0   1  -3 2036.20  104.99
   0  -1   3 2048.30   97.99
   0  -1   3 2085.09  106.49
   1  -1   3 9283.97  448.56
  -2   1  -3 1764.12  127.89
  -2   1  -3 1619.94   85.79
  -2   1  -3 1624.74   89.09
   2  -1   3 1659.43   81.99
   2  -1   3 1759.22   92.49
   2  -1   3 1667.53   86.39
   2  -1   3 1601.64  132.29
  -3   1  -3  630.04   37.60
  -3   1  -3  650.53   82.49
  -3   1  -3  610.94   44.80
  -3   1  -3  568.94   42.40
   3  -1   3  592.34   38.30
   3  -1   3  602.74   42.50
   3  -1   3  607.14   45.90
   3  -1   3  592.74  104.19
  -4   1  -3 3512.05  187.78
  -4   1  -3 3731.53  263.97
  -4   1  -3 3709.53  189.98
  -4   1  -3 3887.51  178.88
   4  -1   3 3785.22  180.68
   4  -1   3 3997.70  194.78
   4  -1   3 3649.53  282.57
   4  -1   3 3709.73  187.38
  -5   1  -3 1904.01  114.89
  -5   1  -3 2056.79  192.78
  -5   1  -3 1906.91  115.59
  -5   1  -3 1981.40  104.89
   5  -1   3 1797.82  204.08
   5  -1   3 2030.10  107.09
   5  -1   3 1896.81  118.29
   5  -1   3 1983.50  114.59
  -6   1  -3   -1.00   14.90
  -6   1  -3    0.70    7.10
  -6   1  -3   14.00   12.70
  -6   1  -3    9.30    8.70
   6  -1   3   14.90   26.60
   6  -1   3    0.90    8.20
   6  -1   3   34.00   18.70
   7   0  -3  618.64   45.90
   7   0  -3  687.13  162.18
   7   0  -3  501.85   44.50
  -7   0   3  553.54  132.19
  -7   0   3  601.24   49.00
  -7   0   3  554.24   54.89
  -7   0   3  574.14   47.70
   6   0  -3 1147.29   66.09
   6   0  -3 1080.79   77.69
   6   0  -3 1052.49   65.49
   6   0  -3 1118.69  150.08
  -6   0   3  810.62  147.89
  -6   0   3 1062.09   69.79
  -6   0   3 1063.59   68.29
   5   0  -3  192.08   20.00
   5   0  -3  190.18   19.50
   5   0  -3  203.08   33.40
   5   0  -3  241.88   84.29
  -5   0   3  213.88   73.69
  -5   0   3  209.88   22.00
  -5   0   3  190.78   17.90
   4   0  -3 1269.77   75.49
   4   0  -3 1299.77   66.69
   4   0  -3 1223.18  129.69
   4   0  -3 1154.58   63.99
  -4   0   3 1190.78   62.59
  -4   0   3 1268.17   73.79
  -4   0   3 1343.07  136.29
  -4   0   3 1224.78   68.09
   3   0  -3 3345.17  162.68
   3   0  -3 3361.76  155.08
  -3   0   3 3430.16  161.88
  -3   0   3 3350.96  156.98
  -3   0   3 3372.86  224.68
   2   0  -3 1994.30   97.69
  -2   0   3 1885.21   91.09
  -2   0   3 1927.91  138.29
   1   0  -3  457.95   25.60
   1   0  -3  411.86   23.10
  -1   0   3  447.06   25.70
  -1   0   3  423.36   23.70
  -1   0   3  435.76   46.20
  -1   0   3  454.35   39.20
  -1   0  -3 3429.16  160.38
  -1   0  -3 3520.45  187.78
  -1   0  -3 3468.55  157.48
   1   0   3 3433.26  160.58
   1   0   3 3601.04  192.38
  -2   0  -3  214.58   16.20
  -2   0  -3  232.98   19.30
  -2   0  -3  317.27   59.19
  -2   0  -3  206.08   19.80
   2   0   3  253.17   21.80
   2   0   3  207.68   47.30
   2   0   3  222.08   18.80
  -3   0  -3 2845.42  190.98
  -3   0  -3 2795.32  136.79
  -3   0  -3 2758.72  129.59
  -3   0  -3 2740.33  138.29
   3   0   3 2824.72  130.99
   3   0   3 2644.24  134.79
   3   0   3 2653.83  140.39
   3   0   3 2661.53  198.08
  -4   0  -3 3151.78  148.49
  -4   0  -3 3198.98  226.38
  -4   0  -3 3024.10  156.58
  -4   0  -3 2985.60  157.28
   4   0   3 3142.39  156.28
   4   0   3 2837.72  231.58
   4   0   3 3215.68  161.18
   4   0   3 3091.79  149.69
  -5   0  -3   75.39   19.60
  -5   0  -3   69.69   19.20
  -5   0  -3   68.79   14.10
  -5   0  -3   43.60   27.50
   5   0   3   63.49   44.40
   5   0   3   73.89   21.40
   5   0   3   60.29   14.20
   5   0   3   76.59   18.50
  -6   0  -3  866.51  157.28
  -6   0  -3  940.51   73.29
  -6   0  -3 1023.30   56.39
  -6   0  -3 1022.20   63.89
   6   0   3 1027.60   73.19
   6   0   3 1000.50   69.09
   6   0   3  607.34  138.99
   6   0   3 1049.70   77.59
  -7   0  -3 1602.04   93.19
  -7   0  -3 1676.83  206.68
  -7   0  -3 1470.35  108.99
  -7   0  -3 1412.76  105.49
   7   0   3 1655.83  110.79
   7   0   3 1445.96   94.99
   7   0   3 1628.54  281.07
   6  -1  -3  473.25   38.60
   6  -1  -3  541.45   52.39
   6  -1  -3  374.16   36.00
   6  -1  -3  293.87   99.19
  -6   1   3  467.55   39.90
  -6   1   3  415.46   38.10
  -6   1   3  506.15  127.69
  -6   1   3  408.96   44.50
   5  -1  -3   58.69   19.30
   5  -1  -3   69.79   41.70
   5  -1  -3   99.59   17.90
   5  -1  -3   67.29   15.60
  -5   1   3   82.29   17.40
  -5   1   3   87.29   20.90
  -5   1   3   48.40   39.20
   4  -1  -3 2212.78  195.28
   4  -1  -3 2152.78  104.69
   4  -1  -3 2033.90  105.29
   4  -1  -3 2104.89  117.39
  -4   1   3 1956.30  113.39
  -4   1   3 2033.30  106.89
  -4   1   3 2222.88  197.38
   3  -1  -3 1418.76   71.89
   3  -1  -3 1445.86   73.89
   3  -1  -3 1363.86   82.09
  -3   1   3 1392.76   74.89
  -3   1   3 1469.85   81.39
  -3   1   3 1490.05  143.19
   2  -1  -3   45.70    8.60
   2  -1  -3   53.99    8.10
   2  -1  -3   58.19   12.90
  -2   1   3   41.60   23.60
  -2   1   3   42.40    9.20
  -2   1   3   54.89   12.90
   1  -1  -3 3010.80  140.09
  -1   1   3 3185.08  175.98
  -1   1   3 3117.29  196.18
   0  -1  -3 2470.05  117.49
   0  -1  -3 2441.36  113.39
   0  -1  -3 2534.75  110.99
   0  -1  -3 2319.47  146.09
   0   1   3 2440.06  117.69
   0   1   3 2484.25  148.19
  -1  -1  -3  109.29   30.80
  -1  -1  -3  173.08   15.40
  -1  -1  -3  156.48   13.20
  -1  -1  -3  142.79   13.60
   1   1   3  148.29   13.20
   1   1   3  159.08   14.00
   1   1   3  137.39   14.40
   1   1   3  194.28   42.80
   1   1   3  142.59   13.50
  -2  -1  -3 1798.52   89.89
  -2  -1  -3 1721.23   86.09
  -2  -1  -3 1720.33   84.59
  -2  -1  -3 1828.32   90.49
  -2  -1  -3 1938.81  131.49
   2   1   3 1872.61  135.69
   2   1   3 1776.42   86.89
   2   1   3 1785.72   91.09
   2   1   3 1791.42   90.19
   2   1   3 1863.71   85.09
  -3  -1  -3 7565.94  341.37
  -3  -1  -3 7603.04  402.56
  -3  -1  -3 7609.04  343.17
   3   1   3 7162.18  341.67
   3   1   3 7719.43  414.26
  -4  -1  -3  485.65   39.10
  -4  -1  -3  496.75   39.40
  -4  -1  -3  743.03  121.09
  -4  -1  -3  474.65   33.80
   4   1   3  520.65   41.00
   4   1   3  514.15   34.90
   4   1   3  592.74  114.59
   4   1   3  518.15   39.50
  -5  -1  -3  631.34   50.59
  -5  -1  -3  502.05   94.09
  -5  -1  -3  647.34   39.70
  -5  -1  -3  611.74   42.90
  -5  -1  -3  632.74   50.19
   5   1   3  834.82  158.78
   5   1   3  667.83   50.19
   5   1   3  663.93   51.89
   5   1   3  638.04   43.80
  -6  -1  -3 2022.60  123.09
  -6  -1  -3 2216.18  107.69
  -6  -1  -3 2059.79  199.78
  -6  -1  -3 2094.69  112.89
  -6  -1  -3 2060.89  122.39
   6   1   3 2054.99  112.99
   6   1   3 1831.52  206.98
   6   1   3 2240.98  124.29
   6   1   3 2142.19  125.89
  -7  -1  -3  934.71   74.29
  -7  -1  -3  996.40  177.78
  -7  -1  -3  952.50   65.49
  -7  -1  -3  994.60   59.69
   7   1   3  916.91   65.69
   7   1   3  980.60   75.39
   7   1   3 1076.79   80.19
   6  -2  -3   19.90   16.70
   6  -2  -3   29.90   14.50
  -6   2   3   24.40   21.60
  -6   2   3   -0.20   18.30
  -6   2   3   47.60   18.40
  -6   2   3   22.50   24.50
   5  -2  -3  170.48   26.70
   5  -2  -3  268.17   27.80
   5  -2  -3  253.97   39.90
  -5   2   3  142.79   67.79
  -5   2   3  176.48   26.80
  -5   2   3  194.78   37.30
   4  -2  -3  260.67   44.40
   4  -2  -3  232.98   24.60
   4  -2  -3  201.78   22.80
  -4   2   3  290.07   91.89
  -4   2   3  264.07   25.20
  -4   2   3  261.57   29.80
   3  -2  -3  144.69   21.80
   3  -2  -3  116.89   18.70
   3  -2  -3  121.39   23.20
  -3   2   3  146.99   16.60
  -3   2   3  160.28   62.29
  -3   2   3  151.08   26.40
   2  -2  -3  450.15   31.10
   2  -2  -3  482.85   38.20
   2  -2  -3  424.76   29.60
  -2   2   3  472.45   62.09
  -2   2   3  452.25   30.90
  -2   2   3  448.86   36.00
  -2   2   3  545.25  106.59
   1  -2  -3 4648.73  217.78
   1  -2  -3 4565.54  207.58
  -1   2   3 4592.54  215.68
  -1   2   3 4290.47  320.07
  -1   2   3 4539.65  208.28
  -1   2   3 4762.62  259.47
   0  -2  -3  524.75   36.90
   0  -2  -3  497.25   58.59
   0  -2  -3  488.75   30.60
   0   2   3  497.65   31.00
   0   2   3  529.45   36.90
   0   2   3  576.94   62.49
  -1  -2  -3  801.82   43.50
  -1  -2  -3  758.22   46.80
  -1  -2  -3  790.82   44.00
  -1  -2  -3  650.73   80.29
   1   2   3  826.22   43.60
   1   2   3  714.43   44.70
   1   2   3  637.94   41.70
  -2  -2  -3 3142.29  147.59
  -2  -2  -3 3075.79  151.28
  -2  -2  -3 3072.39  148.69
  -2  -2  -3 3117.99  201.28
   2   2   3 3062.89  146.69
   2   2   3 3212.38  151.68
   2   2   3 3257.17  145.49
   2   2   3 2958.60  205.48
   2   2   3 3274.37  152.48
  -3  -2  -3 2642.34  124.79
  -3  -2  -3 2471.15  117.19
  -3  -2  -3 2514.05  119.49
  -3  -2  -3 2462.75  177.68
  -3  -2  -3 2469.75  125.49
   3   2   3 2276.47  177.58
   3   2   3 2439.46  125.59
   3   2   3 2513.95  117.69
   3   2   3 2406.56  118.49
  -4  -2  -3  179.58   30.90
  -4  -2  -3  155.18   16.90
  -4  -2  -3  248.28   60.89
  -4  -2  -3  164.78   16.20
  -4  -2  -3  184.28   27.10
   4   2   3  193.78   21.70
   4   2   3  183.58   17.00
   4   2   3  150.38   46.20
   4   2   3  154.28   16.60
  -5  -2  -3 1788.62  108.39
  -5  -2  -3 1964.90  110.79
  -5  -2  -3 1885.21  108.29
  -5  -2  -3 1963.20   98.69
  -5  -2  -3 1900.21  172.88
   5   2   3 2022.50  188.58
   5   2   3 2017.10  100.69
   5   2   3 1947.21  100.89
   5   2   3 1963.70  109.39
   5   2   3 1954.70  111.49
  -6  -2  -3 1416.96  157.48
  -6  -2  -3 1435.96   91.79
  -6  -2  -3 1465.75   83.69
  -6  -2  -3 1489.05   80.29
  -6  -2  -3 1425.96   92.79
   6   2   3 1331.17   85.39
   6   2   3 1573.14   96.09
   6   2   3 1478.25   92.59
   6   2   3 1471.85  173.08
  -7  -2  -3  144.19   32.60
  -7  -2  -3  158.28   71.59
  -7  -2  -3  132.99   21.50
  -7  -2  -3   98.29   26.60
   7   2   3  115.79   26.40
   7   2   3  103.89   25.30
   7   2   3   47.80   48.70
   7   2   3   89.19   20.00
  -8  -2  -3  560.04   47.30
  -8  -2  -3  549.95   46.40
  -8  -2  -3  351.26  102.09
  -8  -2  -3  413.96   58.29
  -8  -2  -3  348.37   55.49
   8   2   3  432.66   45.10
   8   2   3  564.34   55.59
   8   2   3  186.68   85.19
   8   2   3  563.54   56.09
   5  -3  -3   19.60   11.80
   5  -3  -3   73.39   23.40
   5  -3  -3   45.10   18.30
  -5   3   3   58.29   17.10
  -5   3   3    9.70   25.80
  -5   3   3    6.40   22.00
  -5   3   3   32.20   20.20
   4  -3  -3  194.68   31.70
   4  -3  -3  208.88   24.00
   4  -3  -3  219.48   37.40
  -4   3   3  209.18   24.40
  -4   3   3  177.98   75.49
  -4   3   3  206.28   35.50
  -4   3   3  163.88   52.49
   3  -3  -3    7.90    9.10
   3  -3  -3    8.20    9.80
   3  -3  -3   15.00    7.80
  -3   3   3   27.50   10.30
  -3   3   3    0.40    8.50
  -3   3   3    0.70    5.00
  -3   3   3    7.10   19.20
   2  -3  -3  175.38   25.40
   2  -3  -3  198.08   19.60
   2  -3  -3  210.78   33.30
  -2   3   3  223.38   20.80
  -2   3   3  276.37   68.29
  -2   3   3  211.68   31.40
  -2   3   3  144.49   53.59
   1  -3  -3  162.18   17.40
   1  -3  -3  197.58   29.00
  -1   3   3  366.56   95.29
  -1   3   3  295.77   70.89
  -1   3   3  207.58   23.80
  -1   3   3  234.58   19.60
   0  -3  -3   44.20    9.10
   0  -3  -3   85.09   33.80
   0  -3  -3   46.50   13.70
   0   3   3   23.90   20.60
   0   3   3   42.20   12.20
   0   3   3   42.30    9.20
   0   3   3   51.89   11.60
  -1  -3  -3 1290.87   67.69
  -1  -3  -3 1208.38   65.99
  -1  -3  -3 1098.09  107.69
   1   3   3 1217.28  116.39
   1   3   3 1254.27   71.29
   1   3   3 1239.98   65.39
  -2  -3  -3 2396.36  122.19
  -2  -3  -3 2482.95  117.49
  -2  -3  -3 2294.17  179.48
  -2  -3  -3 2442.56  122.19
   2   3   3 2557.24  124.09
   2   3   3 2415.36  119.89
   2   3   3 2429.06  119.29
   2   3   3 2099.19  173.78
  -3  -3  -3   84.99   17.10
  -3  -3  -3   70.99   13.10
  -3  -3  -3   93.09   17.00
  -3  -3  -3   24.40   24.00
  -3  -3  -3   75.19   12.90
   3   3   3  100.59   14.80
   3   3   3   63.99   14.00
   3   3   3   72.19   36.60
  -4  -3  -3  690.63   48.60
  -4  -3  -3  682.53   44.80
  -4  -3  -3  678.13   90.29
  -4  -3  -3  697.23   49.80
  -4  -3  -3  698.23   43.40
   4   3   3  747.73   96.19
   4   3   3  679.33   50.19
   4   3   3  731.33   43.80
   4   3   3  676.63   43.10
  -5  -3  -3 1760.52   94.19
  -5  -3  -3 1767.02   92.29
  -5  -3  -3 1627.14  161.18
  -5  -3  -3 1716.33  101.19
  -5  -3  -3 1706.03   99.69
   5   3   3 1754.92  102.49
   5   3   3 1742.73  103.69
   5   3   3 1760.42   92.79
   5   3   3 1855.81  174.28
   5   3   3 1767.22   92.29
  -6  -3  -3  515.45   47.30
  -6  -3  -3  537.65   38.90
  -6  -3  -3  609.24  130.39
  -6  -3  -3  482.05   39.50
  -6  -3  -3  472.65   43.90
   6   3   3  388.46  102.59
   6   3   3  529.25   39.00
   6   3   3  516.95   46.90
   6   3   3  535.05   48.30
  -7  -3  -3   50.89   42.20
  -7  -3  -3   60.59   20.00
  -7  -3  -3  124.89   38.90
  -7  -3  -3   90.39   17.90
  -7  -3  -3  105.19   18.60
   7   3   3   81.89   23.80
   7   3   3  103.49   20.10
   7   3   3  177.18   83.69
   7   3   3   93.39   24.60
  -8  -3  -3  505.85   55.59
  -8  -3  -3  662.43   47.20
  -8  -3  -3  274.27   86.99
  -8  -3  -3  476.25   64.19
   8   3   3  590.54   57.99
   8   3   3  583.74   57.49
   8   3   3  527.45  145.39
   8   3   3  499.55   46.40
   4  -4  -3  410.06   42.10
   4  -4  -3  264.77   31.80
   4  -4  -3  313.27   49.99
  -4   4   3  405.06  108.79
  -4   4   3  275.57   47.60
  -4   4   3  301.37  102.09
  -4   4   3  380.16   35.00
   3  -4  -3   48.20   15.00
   3  -4  -3   40.80   15.40
   3  -4  -3   25.00   14.30
  -3   4   3   51.49   13.60
  -3   4   3   25.00   15.00
  -3   4   3    2.40   11.30
  -3   4   3    8.60   27.10
   2  -4  -3  185.28   31.70
   2  -4  -3  209.38   31.10
   2  -4  -3  168.08   19.80
  -2   4   3  205.98   45.60
  -2   4   3  210.78   82.99
  -2   4   3  175.28   19.80
  -2   4   3  162.68   20.00
  -2   4   3  164.78   58.89
   1  -4  -3  238.78   36.10
   1  -4  -3  272.57   24.10
  -1   4   3  121.89   41.30
  -1   4   3  267.17   80.99
  -1   4   3  254.77   30.00
  -1   4   3  263.17   23.70
  -1   4   3  282.47   23.60
   0  -4  -3  241.28   21.80
   0  -4  -3  214.58   35.90
   0   4   3  244.08   28.20
   0   4   3  144.49   51.59
   0   4   3  241.38   21.10
   0   4   3  239.78   21.50
  -1  -4  -3  241.48   57.89
  -1  -4  -3  292.77   24.00
  -1  -4  -3  220.18   32.30
   1   4   3  233.28   20.80
   1   4   3  318.77   84.89
   1   4   3  247.48   21.50
   1   4   3  301.77   28.70
  -2  -4  -3  451.05   32.20
  -2  -4  -3  283.27   64.29
  -2  -4  -3  405.96   32.80
  -2  -4  -3  380.66   35.80
   2   4   3  404.06   32.40
   2   4   3  431.46   31.00
   2   4   3  414.16   29.30
   2   4   3  432.76   88.89
  -3  -4  -3  118.89   22.50
  -3  -4  -3  127.99   46.10
  -3  -4  -3  120.49   18.40
   3   4   3  143.29   21.50
   3   4   3  135.29   51.79
   3   4   3  120.49   14.40
   3   4   3  143.59   16.20
  -4  -4  -3   71.29   17.80
  -4  -4  -3  124.39   22.30
  -4  -4  -3   77.49   15.10
  -4  -4  -3  102.49   18.40
  -4  -4  -3   82.99   43.00
   4   4   3  111.69   17.70
   4   4   3   91.49   15.80
   4   4   3  190.78   67.89
   4   4   3   93.39   19.50
  -5  -4  -3  780.52   52.99
  -5  -4  -3  973.00  159.78
  -5  -4  -3  759.42   50.69
  -5  -4  -3  861.51   59.69
  -5  -4  -3  762.22   57.19
   5   4   3  761.82   57.89
   5   4   3  800.12  166.78
   5   4   3  791.22   50.09
   5   4   3  816.52   51.99
  -6  -4  -3   20.70   26.30
  -6  -4  -3   36.90   12.70
  -6  -4  -3   34.40   14.30
  -6  -4  -3   24.10    9.90
  -6  -4  -3   12.70   12.00
   6   4   3   14.50    8.30
   6   4   3   47.20   42.40
   6   4   3    4.70    8.30
   6   4   3   25.90    8.50
  -7  -4  -3  244.58   77.89
  -7  -4  -3  284.87   30.40
  -7  -4  -3  240.38   38.80
  -7  -4  -3  296.17   29.60
  -7  -4  -3  236.58   38.80
   7   4   3  240.18   38.00
   7   4   3  240.68   93.29
   7   4   3  307.27   46.40
  -8  -4  -3  193.78   41.10
  -8  -4  -3  318.67   32.50
  -8  -4  -3  228.08   40.30
  -8  -4  -3  315.37  110.69
  -8  -4  -3  327.87   34.60
   8   4   3  316.67   48.30
   8   4   3  492.55  145.39
   3  -5  -3    6.90    8.70
   3  -5  -3    7.30   12.20
   3  -5  -3    5.30    9.50
  -3   5   3   -3.80    8.00
  -3   5   3   37.90   80.59
  -3   5   3    1.30    7.10
  -3   5   3   12.50   24.50
   2  -5  -3  296.17   45.40
   2  -5  -3  179.18   31.10
   2  -5  -3  246.88   38.50
  -2   5   3  284.77   30.00
  -2   5   3  248.58   42.90
  -2   5   3  116.49   51.39
  -2   5   3  254.77   81.69
  -2   5   3  224.08   23.50
   1  -5  -3 1012.70   63.89
  -1   5   3 1346.37  215.58
  -1   5   3 1000.70   60.29
  -1   5   3 1024.80   61.39
  -1   5   3 1005.40   75.79
  -1   5   3 1000.10  123.09
   0  -5  -3  222.18   35.10
   0  -5  -3  269.57   28.20
   0   5   3  172.28   36.80
   0   5   3  269.47   23.40
   0   5   3  240.88   22.20
  -1  -5  -3  672.23   55.19
  -1  -5  -3  739.63   48.50
  -1  -5  -3  633.84   86.49
   1   5   3  700.43   44.30
   1   5   3  838.92  110.69
   1   5   3  724.63   54.09
  -2  -5  -3  391.96   40.20
  -2  -5  -3  394.26   34.50
  -2  -5  -3  404.26   32.70
  -2  -5  -3  523.95  108.39
   2   5   3  410.56   35.10
   2   5   3  588.34  128.09
   2   5   3  394.86   30.00
   2   5   3  431.26   31.30
  -3  -5  -3  130.69   25.70
  -3  -5  -3  130.69   54.09
  -3  -5  -3  174.38   28.10
  -3  -5  -3  175.38   20.00
   3   5   3  159.38   17.60
   3   5   3  159.28   19.00
   3   5   3  195.68   20.30
   3   5   3  167.28   62.99
  -4  -5  -3   70.29   18.00
  -4  -5  -3  108.09   19.00
  -4  -5  -3   83.29   20.00
  -4  -5  -3  110.49   57.59
  -4  -5  -3   83.49   19.10
   4   5   3   78.29   15.70
   4   5   3   56.69   35.30
   4   5   3   76.29   14.80
   4   5   3  113.49   20.10
  -5  -5  -3  628.54   45.10
  -5  -5  -3  609.54   51.09
  -5  -5  -3  645.24   48.70
  -5  -5  -3  605.84   50.59
  -5  -5  -3  658.33  137.69
   5   5   3  647.04   43.20
   5   5   3  649.93  131.59
   5   5   3  586.74   47.50
  -6  -5  -3   97.09   53.99
  -6  -5  -3  131.99   23.50
  -6  -5  -3   98.99   24.10
  -6  -5  -3   89.49   23.10
  -6  -5  -3  120.19   21.30
   6   5   3  127.19   57.19
   6   5   3  124.49   26.00
   6   5   3   91.09   16.50
  -7  -5  -3   88.19   19.70
  -7  -5  -3  102.99   25.30
  -7  -5  -3   33.70   16.00
  -7  -5  -3   14.10   27.00
  -7  -5  -3   57.49   16.30
   7   5   3  144.49   73.09
   7   5   3   55.49   14.20
   7   5   3   57.19   16.50
   7   5   3   56.39   17.90
  -8  -5  -3  148.19   26.60
  -8  -5  -3  173.08   56.09
  -8  -5  -3   90.89   28.50
  -8  -5  -3  141.99   26.20
  -8  -5  -3   52.29   51.49
   8   5   3  125.29   23.10
   8   5   3   54.09   40.60
   8   5   3  185.58   35.50
   2  -6  -3  618.74   64.79
   2  -6  -3  710.13   61.39
   2  -6  -3  766.02   66.49
  -2   6   3  595.64  142.09
  -2   6   3  733.03  122.09
  -2   6   3  931.81  176.78
   1  -6  -3  374.86   35.90
   1  -6  -3  410.86   44.90
  -1   6   3  387.56   31.40
  -1   6   3  338.67   53.79
  -1   6   3  566.84  132.19
  -1   6   3  445.16   35.50
   0  -6  -3   34.10   11.80
   0  -6  -3    9.30    9.20
   0   6   3   18.20   13.40
   0   6   3   21.30    7.60
   0   6   3    3.70   11.10
   0   6   3   26.40    9.20
   0   6   3   28.50   28.70
  -1  -6  -3  592.04   45.40
  -1  -6  -3  589.84   52.89
   1   6   3  608.64   41.20
   1   6   3  807.82  155.98
   1   6   3  577.14   39.90
   1   6   3  558.04   48.80
  -2  -6  -3 1751.82  110.39
  -2  -6  -3 1862.41  100.79
  -2  -6  -3 1837.02  102.19
  -2  -6  -3 1622.44  157.58
   2   6   3 1630.04  181.18
   2   6   3 1730.73  100.89
   2   6   3 1692.83   92.69
   2   6   3 1834.22   93.19
  -3  -6  -3   20.20   22.60
  -3  -6  -3   -1.50    6.40
  -3  -6  -3   15.90   11.70
  -3  -6  -3   11.80    8.30
   3   6   3    7.20   18.00
   3   6   3   18.80    8.90
  -4  -6  -3  637.74   53.49
  -4  -6  -3  589.64   43.90
  -4  -6  -3  418.96   99.79
  -4  -6  -3  502.65   48.90
   4   6   3  607.54   42.60
   4   6   3  598.84   44.00
   4   6   3  550.74  111.89
  -5  -6  -3  342.57   38.20
  -5  -6  -3  390.06   40.30
  -5  -6  -3  299.57   94.49
  -5  -6  -3  364.86   33.90
  -5  -6  -3  438.06   41.30
   5   6   3  345.57   32.20
   5   6   3  240.58   73.29
  -6  -6  -3   45.50   20.40
  -6  -6  -3   55.19   18.20
  -6  -6  -3   40.30   17.50
  -6  -6  -3   74.89   18.10
  -6  -6  -3   52.89   42.80
   6   6   3   22.50   28.30
   6   6   3   74.09   19.40
   6   6   3   50.49   15.30
   6   6   3   63.99   17.00
  -7  -6  -3  328.57   51.79
  -7  -6  -3  325.07   46.80
  -7  -6  -3  317.27  102.29
  -7  -6  -3  358.96   37.60
  -7  -6  -3  348.37   35.10
   7   6   3  242.48   86.69
   7   6   3  323.07   36.40
   7   6   3  344.87   36.30
   7   6   3  305.67   30.30
  -8  -6  -3  186.88   37.70
  -8  -6  -3  193.48   31.40
  -8  -6  -3  112.19   31.60
  -8  -6  -3  185.18   31.80
   8   6   3  230.28   38.10
   8   6   3  142.29   26.60
   1  -7  -3   73.09   26.90
   1  -7  -3   89.09   25.00
   1  -7  -3   60.09   19.20
  -1   7   3   68.69   67.19
  -1   7   3   29.80   20.40
  -1   7   3   55.19   44.20
  -1   7   3   54.89   14.40
   0  -7  -3  342.77   51.49
   0  -7  -3  306.87   34.80
   0   7   3  370.96   32.10
   0   7   3  340.17   28.90
   0   7   3  367.16  118.09
   0   7   3  355.26   76.99
   0   7   3  310.17  105.89
  -1  -7  -3  809.12   83.09
  -1  -7  -3  767.52   58.99
   1   7   3  812.02   51.39
   1   7   3  719.63   60.39
   1   7   3  820.52  156.38
   1   7   3  542.35  130.89
   1   7   3  861.91   52.69
  -2  -7  -3  349.87   36.90
  -2  -7  -3  396.26   43.40
  -2  -7  -3  329.17   81.99
   2   7   3  367.86   34.50
   2   7   3  302.67   33.70
   2   7   3  359.46  103.19
   2   7   3  384.96   30.80
  -3  -7  -3  198.88   36.70
  -3  -7  -3  252.07   28.20
  -3  -7  -3  156.48   55.59
  -3  -7  -3  219.08   34.60
   3   7   3  224.98   22.50
  -4  -7  -3  950.50  160.98
  -4  -7  -3  729.43   68.19
  -4  -7  -3  926.31   62.19
  -4  -7  -3  798.92   66.79
   4   7   3  865.71   54.59
  -5  -7  -3  540.65   44.40
  -5  -7  -3  604.84  137.89
  -5  -7  -3  530.15   51.59
  -5  -7  -3  461.95   49.90
   5   7   3  547.15   40.60
   5   7   3  470.35   42.80
   5   7   3  492.65   38.50
  -6  -7  -3   14.60   26.30
  -6  -7  -3   21.10   12.80
  -6  -7  -3    7.70   11.00
  -6  -7  -3   22.40   14.20
  -6  -7  -3   17.50   14.90
   6   7   3   19.80   10.90
   6   7   3   11.20    7.60
   6   7   3   27.60   12.00
  -7  -7  -3  600.44   49.90
  -7  -7  -3  508.25  137.29
  -7  -7  -3  586.54   53.39
  -7  -7  -3  575.54   55.09
  -7  -7  -3  506.75   55.69
   7   7   3  513.75   45.00
   7   7   3  525.35   48.50
   7   7   3  471.65   39.80
  -1  -8  -3  929.51   76.19
  -1  -8  -3  826.12   67.39
   1   8   3  703.23  149.79
   1   8   3  914.31   58.29
  -2  -8  -3    1.80   12.40
  -2  -8  -3    7.60   12.20
   2   8   3    0.00    6.70
   2   8   3    2.70   21.10
   2   8   3    5.20    6.30
   2   8   3   10.90    9.20
  -3  -8  -3  790.12   69.19
  -3  -8  -3  821.72   67.09
  -3  -8  -3  775.82  136.79
  -3  -8  -3  860.31   63.49
   3   8   3  475.15  123.09
   3   8   3  715.73   56.09
  -4  -8  -3 1103.09   83.59
  -4  -8  -3 1132.59   79.09
  -4  -8  -3  939.41  127.29
  -4  -8  -3 1133.99   87.49
   4   8   3 1051.29   69.19
   4   8   3 1003.20   69.39
   4   8   3 1175.78  200.48
   4   8   3 1011.80   64.19
  -5  -8  -3   78.69   50.89
  -5  -8  -3   82.49   20.20
  -5  -8  -3   84.79   26.20
  -5  -8  -3   70.39   25.40
   5   8   3   49.90   13.70
   5   8   3   74.49   16.00
   5   8   3   32.40   39.20
   5   8   3   65.49   18.10
  -6  -8  -3  423.96   58.99
  -6  -8  -3  416.66   41.30
  -6  -8  -3  374.06   57.89
  -6  -8  -3  288.37   97.99
  -6  -8  -3  269.47   48.70
   6   8   3  383.76   33.30
   6   8   3  300.47   30.90
   6   8   3  369.46   38.70
   6   8   3  319.97   99.09
  -5  -6   4  544.65   45.80
  -4  -6   4 1808.82  101.99
  -3  -6   4  476.45   37.90
  -1  -6   4 1343.27   74.29
  -1  -6   4 1405.16   88.69
  -1  -6   4 1374.86   75.39
   0   6  -4 1002.50   95.19
   0   6  -4 1011.40  103.49
   0  -6   4  904.11   57.99
   0  -6   4  940.21   69.79
   0  -6   4  853.81   57.69
   6   5  -4  404.06   75.09
  -6  -5   4  231.68   36.10
  -6  -5   4  289.07   33.00
  -6  -5   4  276.77   26.40
  -6  -5   4  323.97   28.20
  -6  -5   4  320.87   66.09
  -5  -5   4 1229.88   79.69
  -5  -5   4 1142.29   63.89
  -4  -5   4 1379.06   80.89
  -3  -5   4   10.20    7.60
  -2  -5   4 1147.99   64.69
  -1  -5   4 1528.55   91.99
  -1  -5   4 1575.24   79.59
  -1  -5   4 1568.94   79.69
   0   5  -4  282.17   56.59
   0   5  -4  285.67   61.59
   0  -5   4  269.77   24.40
   0  -5   4  278.67   23.90
   0  -5   4  298.57   41.10
  -1   5  -4  733.93   89.19
  -1   5  -4  897.91  101.09
   1  -5   4  728.13   49.70
   1  -5   4  887.01   65.39
   1  -5   4  846.82   54.69
  -2   5  -4 1149.08  127.69
  -2   5  -4 1171.08  128.99
  -2   5  -4 1220.98   61.89
   2  -5   4 1099.99   83.19
   2  -5   4 1048.10   69.39
   2  -5   4 1268.07   76.19
   7   4  -4   -4.30   12.50
  -7  -4   4   13.00   10.20
  -7  -4   4   11.60   23.30
  -7  -4   4   14.10   11.80
  -7  -4   4    3.80    9.20
  -7  -4   4    8.30    8.10
   6   4  -4  480.65   98.19
  -6  -4   4  358.06   87.29
  -6  -4   4  352.36   30.70
  -6  -4   4  327.77   32.10
  -6  -4   4  374.46   30.60
  -6  -4   4  345.57   35.70
   5   4  -4 1240.48  134.79
  -5  -4   4 1103.29   67.49
  -5  -4   4 1274.27   77.79
  -5  -4   4 1301.87   68.99
  -5  -4   4 1411.46   80.29
  -4  -4   4  220.88   17.80
  -4  -4   4  221.48   18.40
  -4  -4   4  235.68   24.70
  -3  -4   4 1035.20   61.69
  -2  -4   4 2165.48  108.79
  -1  -4   4  744.83   50.49
   0   4  -4  365.26   46.70
   0   4  -4  292.17   38.90
   0  -4   4  237.78   20.10
   0  -4   4  204.68   18.10
   0  -4   4  299.17   28.90
  -1   4  -4 1626.64  129.09
   1  -4   4 1608.04   84.39
   1  -4   4 1539.95   93.79
   1  -4   4 1438.36   79.59
  -2   4  -4 1092.29  114.59
  -2   4  -4  982.80  108.79
  -2   4  -4 1065.69   55.29
   2  -4   4 1011.70   69.39
   2  -4   4  973.30   60.69
   2  -4   4  958.20   81.39
  -3   4  -4    2.10   14.30
  -3   4  -4    8.80    6.70
   3  -4   4   13.70    9.00
   3  -4   4   10.10   13.20
   3  -4   4    2.50    7.40
   7   3  -4   57.59   42.50
   7   3  -4   49.40   16.00
   7   3  -4   22.60    8.80
  -7  -3   4   63.29   19.10
  -7  -3   4   37.10   11.10
  -7  -3   4   33.90   14.10
  -7  -3   4   25.10   31.40
  -7  -3   4   39.70   12.90
   6   3  -4  893.01  108.39
   6   3  -4  758.72   49.40
   6   3  -4  742.33   42.70
  -6  -3   4  729.83   49.90
  -6  -3   4  768.52  102.59
  -6  -3   4  807.32   57.99
  -6  -3   4  693.13   51.29
  -6  -3   4  792.92   48.60
   5   3  -4  262.67   64.69
  -5  -3   4  200.08   20.80
  -5  -3   4  187.18   53.49
  -5  -3   4  239.68   23.00
  -5  -3   4  236.98   21.20
  -5  -3   4  218.98   25.40
   4   3  -4  158.98   39.60
  -4  -3   4  123.19   12.90
  -4  -3   4  138.69   22.50
  -4  -3   4  154.08   42.10
  -4  -3   4  140.39   14.30
  -4  -3   4  140.39   22.30
  -3  -3   4  647.24   43.80
  -3  -3   4  657.03   34.70
  -2  -3   4 1517.65   79.49
  -1  -3   4   60.59   10.20
   0   3  -4 1688.03  101.49
   0   3  -4 1614.54  103.49
   0  -3   4 1542.05   88.59
   0  -3   4 1685.73   79.99
  -1   3  -4 1569.84  117.79
   1  -3   4 1547.45   90.29
   1  -3   4 1525.55   77.59
   1  -3   4 1578.84   81.19
  -2   3  -4  144.09   13.90
  -2   3  -4  132.79   46.10
   2  -3   4  147.69   16.10
   2  -3   4  150.88   23.30
   2  -3   4  137.79   26.00
  -3   3  -4  959.50  114.59
  -3   3  -4 1063.89   58.89
   3  -3   4 1008.40  134.99
   3  -3   4 1116.89   76.99
   3  -3   4 1038.20   67.69
   3  -3   4  999.40   62.49
  -4   3  -4 1263.17  147.89
  -4   3  -4 1410.46  104.09
   4  -3   4 1248.18  170.48
   4  -3   4 1420.06   88.89
   4  -3   4 1512.25   98.49
   4  -3   4 1311.87   81.89
   7   2  -4    7.70    8.90
   7   2  -4   17.80   31.50
   7   2  -4   11.50    8.50
  -7  -2   4   10.80    9.90
  -7  -2   4   12.00   28.30
  -7  -2   4    5.70    8.30
  -7  -2   4    9.50   10.70
   6   2  -4  272.07   23.80
   6   2  -4  414.96  107.99
   6   2  -4  337.37   31.10
  -6  -2   4  319.37   89.29
  -6  -2   4  268.47   29.70
  -6  -2   4  304.67   29.80
  -6  -2   4  319.17   34.80
   5   2  -4   60.19   13.30
   5   2  -4   90.99   43.60
  -5  -2   4   72.19   12.20
  -5  -2   4   49.99   11.00
  -5  -2   4   44.60   12.10
  -5  -2   4   22.90   25.30
  -5  -2   4   39.10   13.30
   4   2  -4  238.88   16.10
   4   2  -4  250.57   57.19
   4   2  -4  251.27   19.80
  -4  -2   4  212.88   24.30
  -4  -2   4  235.28   19.60
  -4  -2   4  242.08   21.20
  -4  -2   4  334.07   67.89
  -4  -2   4  229.78   19.30
  -3  -2   4  308.07   20.20
  -3  -2   4  331.67   42.40
  -3  -2   4  319.47   21.70
  -1  -2   4  654.13   38.90
   0  -2   4 1627.44   74.69
  -1   2  -4  310.77   20.80
  -1   2  -4  290.17   17.80
  -1   2  -4  353.66   43.80
   1  -2   4  329.77   22.90
   1  -2   4  276.17   57.69
   1  -2   4  310.27   28.00
   1  -2   4  302.77   20.50
  -2   2  -4  189.58   15.40
  -2   2  -4  184.78   18.80
  -2   2  -4  156.48   44.10
   2  -2   4  182.68   59.59
   2  -2   4  188.08   17.10
   2  -2   4  160.58   26.80
  -3   2  -4 1117.29  116.79
   3  -2   4 1153.28   75.89
   3  -2   4 1050.09   63.09
   3  -2   4 1185.48   69.89
   3  -2   4 1079.59  131.69
  -4   2  -4  738.53   47.20
   4  -2   4  760.32   55.59
   4  -2   4  850.31   64.09
   4  -2   4  544.85  162.18
   4  -2   4  660.93   49.10
  -5   2  -4   12.20   22.10
  -5   2  -4    1.40   12.30
  -5   2  -4   45.70   14.20
   5  -2   4   32.50   16.00
   5  -2   4   27.50   40.90
   5  -2   4   40.70   14.80
   5  -2   4   53.69   20.80
   7   1  -4   28.00   32.20
   7   1  -4   27.90   11.10
   7   1  -4   43.30   17.40
  -7  -1   4   21.50   37.90
  -7  -1   4   91.39   23.00
  -7  -1   4   34.80   13.10
   6   1  -4  153.68   27.70
   6   1  -4   92.59   17.10
  -6  -1   4   97.09   25.90
  -6  -1   4  133.59   26.80
  -6  -1   4  113.99   24.50
  -6  -1   4  157.18   64.69
   5   1  -4   97.29   45.80
  -5  -1   4   86.69   15.90
  -5  -1   4   39.40   28.20
  -5  -1   4   97.99   19.30
   4   1  -4   65.89   10.70
   4   1  -4   68.99   34.50
   4   1  -4   62.79   13.50
  -4  -1   4   70.59   12.40
  -4  -1   4   51.59   31.80
  -4  -1   4   80.89   17.00
   3   1  -4  587.34   34.90
   3   1  -4  579.54   31.20
  -3  -1   4  584.44   36.50
  -3  -1   4  531.85   33.30
  -3  -1   4  791.42  143.79
  -2  -1   4  108.69   23.10
  -2  -1   4   98.19    9.00
  -2  -1   4  150.18   32.80
   0   1  -4  380.26   33.70
   0  -1   4  376.06   25.90
  -1   1  -4   84.79   25.20
  -1   1  -4   64.79    7.70
  -1   1  -4   67.59    7.00
  -1   1  -4   73.19   14.00
   1  -1   4   83.99   15.10
   1  -1   4   65.99   24.30
   1  -1   4   71.09    8.10
  -2   1  -4  408.76   53.89
  -2   1  -4  374.76   24.00
  -2   1  -4  345.97   27.10
  -2   1  -4  397.36   31.90
   2  -1   4  394.26   72.89
   2  -1   4  364.46   31.50
   2  -1   4  377.26   25.60
   2  -1   4  385.86   28.10
  -3   1  -4  791.42   46.20
  -3   1  -4  875.81   95.39
  -3   1  -4  817.52   55.69
  -3   1  -4  797.12   52.39
   3  -1   4  824.62   48.50
   3  -1   4  793.12   56.69
   3  -1   4  760.92   51.19
   3  -1   4  771.62  100.89
  -4   1  -4  126.69   23.60
  -4   1  -4  226.58   72.99
  -4   1  -4  138.29   16.00
   4  -1   4   46.70   35.60
   4  -1   4   97.09   24.20
   4  -1   4  131.59   24.20
   4  -1   4   87.89   17.60
  -5   1  -4  141.69   22.00
  -5   1  -4  154.88   62.79
  -5   1  -4  116.19   31.80
   5  -1   4   79.89   18.20
   5  -1   4  105.79   26.90
   5  -1   4  103.89   23.70
  -6   1  -4  215.08   42.90
  -6   1  -4  353.16  104.89
  -6   1  -4  278.67   52.19
  -6   1  -4  368.16   33.80
   6  -1   4  216.68   87.49
   6  -1   4  349.77   37.60
   6  -1   4  422.36   56.99
   6  -1   4  338.07   39.60
   7   0  -4  148.09   25.60
  -7   0   4  158.28   26.90
   6   0  -4  208.68   35.40
   6   0  -4  290.07   41.70
   6   0  -4  176.98   69.69
  -6   0   4  213.08   79.39
  -6   0   4  215.08   34.80
  -6   0   4  283.07   28.80
   5   0  -4  129.99   25.10
   5   0  -4  135.49   53.09
   5   0  -4  157.68   17.60
  -5   0   4  246.58   82.79
  -5   0   4  133.59   21.10
   4   0  -4  189.08   28.50
  -4   0   4  161.78   54.99
  -4   0   4  223.68   20.80
   3   0  -4  465.65   28.90
  -3   0   4  477.75   88.49
  -3   0   4  460.35   33.90
   2   0  -4  122.59   10.60
   2   0  -4  121.39   13.20
  -2   0   4  110.89   12.80
  -2   0   4  121.29   11.60
  -2   0   4  104.39   33.60
  -2   0   4  123.59   31.90
   1   0  -4  108.09   10.20
   1   0  -4  103.49    9.20
  -1   0   4  115.89   11.10
  -1   0   4  146.19   31.90
  -1   0   4  109.99    9.90
   0   0  -4 2621.44  148.19
   0   0  -4 2731.03  119.19
   0   0   4 2784.42  151.28
   0   0   4 2419.86  119.29
   0   0   4 2422.16  118.49
   0   0   4 2625.74  118.99
  -1   0  -4  415.16   26.00
  -1   0  -4  432.46   25.80
  -1   0  -4  462.25   29.70
  -1   0  -4  440.86   47.30
   1   0   4  425.06   27.00
   1   0   4  448.46   50.59
   1   0   4  428.16   26.10
   1   0   4  426.46   26.80
   1   0   4  433.86   29.40
  -2   0  -4   67.69   25.10
  -2   0  -4   99.69   15.20
  -2   0  -4  107.09   17.20
   2   0   4  109.09   37.00
   2   0   4   83.29   14.70
   2   0   4   96.59   18.10
   2   0   4   99.99   11.10
  -3   0  -4  369.76   31.40
  -3   0  -4  457.35   35.60
  -3   0  -4  492.85   90.89
  -3   0  -4  378.86   27.10
   3   0   4  400.66   29.00
   3   0   4  422.06   34.90
   3   0   4  358.46   80.49
   3   0   4  438.86   32.30
  -4   0  -4  149.88   48.20
  -4   0  -4  145.99   16.40
  -4   0  -4  172.78   27.90
  -4   0  -4  157.78   28.00
   4   0   4  181.78   30.60
   4   0   4  174.88   18.70
   4   0   4   76.29   37.20
   4   0   4  171.18   25.80
  -5   0  -4   97.19   17.40
  -5   0  -4   88.29   23.00
  -5   0  -4  118.19   53.39
  -5   0  -4   94.39   21.80
   5   0   4  113.79   26.40
   5   0   4  123.69   24.40
   5   0   4   70.79   44.10
   5   0   4  120.99   21.90
  -6   0  -4  173.78   35.90
  -6   0  -4  188.38   76.69
  -6   0  -4   94.39   26.20
   6   0   4  154.38   32.70
   6   0   4  156.48  100.09
   6   0   4  142.99   29.10
   6   0   4  140.49   26.70
  -7   0  -4   14.90   16.40
  -7   0  -4   23.30   36.60
  -7   0  -4   43.60   15.40
  -7   0  -4   47.60   22.00
   7   0   4   58.69   22.40
   7   0   4   17.60   35.70
   7   0   4   64.69   25.20
   7   0   4   27.80   14.90
   6  -1  -4  468.55   36.50
   6  -1  -4  557.54  100.19
  -6   1   4  474.55   41.60
  -6   1   4  373.66  106.39
   5  -1  -4   18.80    8.10
   5  -1  -4   22.30    8.60
   5  -1  -4   22.90   13.90
  -5   1   4   20.10   11.40
  -5   1   4   17.00   23.60
  -5   1   4   16.80    9.10
   4  -1  -4 1379.06   75.69
   4  -1  -4 1433.56   87.99
  -4   1   4 1354.56   84.79
  -4   1   4 1434.16   78.99
  -4   1   4 1475.05  159.58
   3  -1  -4 1310.37   77.29
   3  -1  -4 1234.98   66.69
  -3   1   4 1267.67   69.29
  -3   1   4 1155.08  130.69
  -3   1   4 1298.57   74.59
   2  -1  -4  191.28   15.80
   2  -1  -4  198.28   20.50
  -2   1   4  178.78   19.00
  -2   1   4  171.88   50.19
  -2   1   4  144.89   36.60
  -2   1   4  170.08   18.40
  -1   1   4  384.66   25.40
  -1   1   4  438.56   49.50
   0  -1  -4 1866.31   83.39
   0  -1  -4 1723.63  123.19
   0  -1  -4 1764.72   87.09
   0   1   4 1822.12  125.69
   0   1   4 1938.81   92.19
   0   1   4 1688.13   86.99
  -1  -1  -4  360.66   26.20
  -1  -1  -4  349.96   63.39
  -1  -1  -4  374.66   24.30
  -1  -1  -4  385.86   26.10
   1   1   4  378.66   50.79
   1   1   4  357.36   26.10
   1   1   4  335.37   24.80
   1   1   4  364.06   25.50
  -2  -1  -4  387.06   66.49
  -2  -1  -4  215.68   18.20
  -2  -1  -4  219.58   17.50
  -2  -1  -4  241.68   20.70
   2   1   4  231.28   21.10
   2   1   4  222.08   18.50
   2   1   4  249.88   18.00
   2   1   4  283.17   58.39
   2   1   4  250.37   22.00
  -3  -1  -4 1125.19   66.49
  -3  -1  -4 1142.79   61.19
  -3  -1  -4 1131.39   66.69
  -3  -1  -4 1181.48  109.39
   3   1   4 1200.48   62.99
   3   1   4 1113.09   74.69
   3   1   4 1130.49   58.29
   3   1   4 1270.97  121.89
   3   1   4 1068.99   64.89
  -4  -1  -4  334.77   31.20
  -4  -1  -4  431.36   89.39
  -4  -1  -4  311.87   25.80
  -4  -1  -4  306.87   23.10
  -4  -1  -4  307.87   30.60
   4   1   4  244.78   69.59
   4   1   4  345.87   27.00
   4   1   4  358.26   33.70
   4   1   4  371.66   31.60
   4   1   4  358.06   27.90
  -5  -1  -4  113.39   18.60
  -5  -1  -4  109.99   22.70
  -5  -1  -4   90.09   20.70
  -5  -1  -4  163.78   65.59
   5   1   4  209.68   82.19
   5   1   4  105.69   21.60
   5   1   4  118.29   20.30
   5   1   4  103.49   22.70
  -6  -1  -4  480.85   38.50
  -6  -1  -4  443.86   45.00
  -6  -1  -4  518.25   34.50
  -6  -1  -4  455.65  101.09
  -6  -1  -4  380.46   42.70
   6   1   4  442.16  119.49
   6   1   4  438.96   38.30
   6   1   4  484.15   45.20
   6   1   4  509.05   48.90
  -7  -1  -4   53.09   22.10
  -7  -1  -4   74.79   15.20
  -7  -1  -4   46.00   15.10
  -7  -1  -4    5.30    9.70
  -7  -1  -4    3.40   17.90
   7   1   4   32.70   13.70
   7   1   4   57.29   19.00
   7   1   4   73.39   23.00
   7   1   4   -0.50   17.70
   6  -2  -4   46.70   17.30
   6  -2  -4  122.19   33.60
   6  -2  -4  112.49   22.50
  -6   2   4   61.89   50.39
  -6   2   4  120.69   33.80
  -6   2   4  120.99   25.50
  -6   2   4  100.89   91.99
   5  -2  -4  612.64   42.40
   5  -2  -4  545.65   53.69
   5  -2  -4  476.05   40.70
  -5   2   4  500.25   83.89
  -5   2   4  395.46  104.49
  -5   2   4  592.14   45.60
   4  -2  -4 1167.28   64.79
   4  -2  -4 1117.39   65.59
   4  -2  -4 1095.39   78.39
  -4   2   4 1050.79   74.09
  -4   2   4 1086.99  144.99
  -4   2   4 1083.69  120.79
   3  -2  -4 1460.15   87.29
   3  -2  -4 1366.26   74.69
   3  -2  -4 1407.06   73.49
  -3   2   4 1362.36   76.49
  -3   2   4 1270.97   82.09
  -3   2   4 1383.46  154.68
  -3   2   4 1389.56  143.39
   2  -2  -4  106.49   20.60
   2  -2  -4  134.89   14.30
   2  -2  -4  128.19   13.20
  -2   2   4   84.19   30.40
  -2   2   4  107.99   16.90
  -2   2   4  114.89   22.10
   1  -2  -4 3927.81  183.18
   1  -2  -4 3511.95  170.68
  -1   2   4 3681.33  172.38
  -1   2   4 3836.72  179.98
  -1   2   4 3613.14  222.48
   0  -2  -4 2694.73  134.09
   0  -2  -4 2401.66  172.98
   0  -2  -4 2680.13  126.19
   0   2   4 2792.42  180.08
   0   2   4 2622.14  126.49
   0   2   4 2782.92  134.39
  -1  -2  -4  148.89   15.40
  -1  -2  -4  105.49   39.00
  -1  -2  -4  121.19   12.90
   1   2   4  125.89   14.50
   1   2   4  120.29   18.90
   1   2   4  150.98   15.40
   1   2   4  177.78   45.00
  -2  -2  -4 1746.63   87.89
  -2  -2  -4 1741.03   90.49
  -2  -2  -4 1810.72  143.29
  -2  -2  -4 1730.23   93.39
  -2  -2  -4 1820.62   90.99
   2   2   4 1841.32   89.09
   2   2   4 1825.32   93.59
   2   2   4 1793.62   93.99
   2   2   4 1732.63  145.29
   2   2   4 1727.53   90.39
  -3  -2  -4 1456.95   75.99
  -3  -2  -4 1502.15   81.89
  -3  -2  -4 1500.55   78.39
  -3  -2  -4 1591.74  134.19
   3   2   4 1522.75   85.09
   3   2   4 1497.85   78.69
   3   2   4 1530.75   84.59
   3   2   4 1423.36  136.19
  -4  -2  -4  140.59   16.40
  -4  -2  -4  118.89   21.40
  -4  -2  -4  156.18   24.50
  -4  -2  -4  144.19   55.49
  -4  -2  -4  141.29   14.90
   4   2   4  145.59   23.50
   4   2   4  186.58   66.29
   4   2   4  137.39   14.60
   4   2   4  139.89   24.50
  -5  -2  -4  412.96   40.20
  -5  -2  -4  404.16   81.59
  -5  -2  -4  449.26   40.90
   5   2   4  448.96   34.50
   5   2   4  441.16   41.30
   5   2   4  362.26   87.09
   5   2   4  429.96   38.90
   5   2   4  446.96   32.40
  -6  -2  -4  405.26   35.30
  -6  -2  -4  426.76   41.90
  -6  -2  -4  396.46   42.80
  -6  -2  -4  444.26   33.10
   6   2   4  377.66   34.40
   6   2   4  470.95   43.30
   6   2   4  454.95   44.90
  -7  -2  -4   33.30   11.90
  -7  -2  -4    1.60   17.40
  -7  -2  -4   18.40   14.00
  -7  -2  -4   31.30   19.00
  -7  -2  -4   45.10   14.20
   7   2   4   44.70   16.20
   7   2   4   71.39   24.40
   7   2   4   16.20   32.40
   7   2   4   65.89   21.10
  -8  -2  -4  125.29   27.70
  -8  -2  -4   69.19   26.30
  -8  -2  -4  139.59   27.80
  -8  -2  -4  128.89   80.29
  -8  -2  -4   56.09   25.40
   8   2   4   88.49   29.50
   8   2   4  103.79   27.50
   8   2   4   87.69   22.80
   5  -3  -4 1220.98   84.49
   5  -3  -4 1424.36  102.99
   5  -3  -4 1648.64   90.39
  -5   3   4 1340.47  112.29
  -5   3   4 1572.44   90.99
  -5   3   4 1082.49  200.68
   4  -3  -4 1376.96   79.99
   4  -3  -4 1189.88   89.79
   4  -3  -4 1254.77   77.39
  -4   3   4 1283.57   88.69
  -4   3   4 1337.27  144.69
  -4   3   4 1333.87   79.29
  -4   3   4 1422.26  177.88
   3  -3  -4   10.20   10.20
   3  -3  -4   -0.40    4.80
   3  -3  -4   -4.60    5.60
  -3   3   4   20.40   10.00
  -3   3   4    2.00   17.40
  -3   3   4    3.00    5.40
  -3   3   4   -1.50   16.80
   2  -3  -4 2064.29  108.79
   2  -3  -4 2112.09  122.19
   2  -3  -4 2143.69  110.99
  -2   3   4 2214.58  110.79
  -2   3   4 2209.88  204.48
  -2   3   4 2278.77  121.09
  -2   3   4 2032.60  167.78
   1  -3  -4 2793.72  146.79
   1  -3  -4 2835.22  134.09
  -1   3   4 2677.93  192.98
  -1   3   4 2803.82  224.38
  -1   3   4 2615.14  133.39
  -1   3   4 2835.42  155.18
   0  -3  -4  972.70   99.49
   0  -3  -4  876.91   60.69
   0  -3  -4  968.70   54.79
   0   3   4  919.71   55.79
   0   3   4 1009.60  101.29
   0   3   4  905.81   60.59
   0   3   4  883.91   52.49
  -1  -3  -4  827.82   96.29
  -1  -3  -4  951.50   55.09
  -1  -3  -4  905.21   61.19
   1   3   4  966.10   54.89
   1   3   4  959.30   55.49
   1   3   4  917.71  102.19
   1   3   4  979.40   60.19
  -2  -3  -4 3803.72  182.38
  -2  -3  -4 3671.33  182.28
  -2  -3  -4 3835.62  176.88
  -2  -3  -4 3706.23  252.27
   2   3   4 3902.61  176.98
   2   3   4 3750.82  180.08
   2   3   4 3555.74  249.38
   2   3   4 3745.13  180.68
  -3  -3  -4 1268.27   68.59
  -3  -3  -4 1271.57   73.09
  -3  -3  -4 1324.07  130.49
  -3  -3  -4 1197.78   74.49
  -3  -3  -4 1259.37   71.49
   3   3   4 1260.17   68.09
   3   3   4 1285.27   70.59
   3   3   4 1175.18  126.79
   3   3   4 1337.97   76.09
  -4  -3  -4  207.18   21.30
  -4  -3  -4  196.78   19.70
  -4  -3  -4  216.98   25.30
  -4  -3  -4  268.17   26.10
  -4  -3  -4  151.98   47.50
   4   3   4  212.28   25.30
   4   3   4  205.78   19.80
   4   3   4  220.88   21.20
   4   3   4  259.07   33.40
   4   3   4  151.58   51.09
  -5  -3  -4 2673.63  218.58
  -5  -3  -4 2669.33  133.99
  -5  -3  -4 2581.54  139.89
  -5  -3  -4 2623.24  130.59
  -5  -3  -4 2603.14  142.79
   5   3   4 2668.03  227.58
   5   3   4 2616.64  142.79
   5   3   4 2705.93  132.29
   5   3   4 2652.03  144.59
   5   3   4 2567.74  132.29
  -6  -3  -4  795.12   65.09
  -6  -3  -4 1105.49  184.18
  -6  -3  -4  812.52   62.69
   6   3   4  940.51   67.49
   6   3   4  616.64  127.09
   6   3   4  898.81   67.49
   6   3   4  878.01   56.69
  -7  -3  -4   11.90   11.80
  -7  -3  -4   47.60   15.80
  -7  -3  -4    5.70    8.30
  -7  -3  -4   25.70   10.60
   7   3   4   12.50    9.00
   7   3   4   17.10   12.20
   7   3   4    3.40   10.80
  -8  -3  -4  300.87   50.79
  -8  -3  -4  385.06   55.59
  -8  -3  -4  384.16  117.79
  -8  -3  -4  475.75   39.00
   8   3   4  385.96   39.40
   8   3   4  485.45   52.69
   8   3   4  415.96  137.39
   8   3   4  370.86   55.39
   4  -4  -4   67.69   22.40
   4  -4  -4  124.19   25.50
   4  -4  -4  148.99   35.20
  -4   4   4   80.59   47.60
  -4   4   4   65.89   56.39
  -4   4   4  104.09   20.80
  -4   4   4   97.59   28.20
   3  -4  -4  655.13   59.59
   3  -4  -4  649.43   48.70
   3  -4  -4  695.43   53.79
  -3   4   4  669.23   58.49
  -3   4   4  522.35  103.19
  -3   4   4  711.03   50.09
  -3   4   4  812.72  160.48
   2  -4  -4 2515.15  138.79
   2  -4  -4 2703.23  151.38
   2  -4  -4 2540.05  134.39
  -2   4   4 2489.15  207.78
  -2   4   4 2926.01  136.79
  -2   4   4 2691.03  148.99
   1  -4  -4  745.33   48.40
   1  -4  -4  798.62   60.79
  -1   4   4  749.13   47.90
  -1   4   4  855.81  101.99
  -1   4   4  704.43   49.70
  -1   4   4  714.63   56.99
  -1   4   4  826.12  146.29
   0  -4  -4  677.13   88.09
   0  -4  -4  600.54   52.19
   0  -4  -4  637.94   43.20
   0   4   4  609.14   50.99
   0   4   4  721.23   43.90
   0   4   4  773.32   95.89
   0   4   4  676.43   44.70
  -1  -4  -4 4101.69  192.18
  -1  -4  -4 3949.30  265.57
  -1  -4  -4 3622.04  200.88
   1   4   4 3990.60  200.18
   1   4   4 4173.98  190.88
   1   4   4 4181.48  281.47
   1   4   4 4191.08  191.68
  -2  -4  -4 3695.83  191.78
  -2  -4  -4 3373.86  256.97
  -2  -4  -4 3929.81  185.78
  -2  -4  -4 4077.19  183.38
   2   4   4 3947.41  182.98
   2   4   4 3537.05  265.07
   2   4   4 3642.44  185.38
   2   4   4 3859.11  180.38
  -3  -4  -4   30.60    9.70
  -3  -4  -4   19.70   22.40
  -3  -4  -4   39.90   11.50
  -3  -4  -4    6.80    6.80
  -3  -4  -4   24.30    9.60
   3   4   4   12.60    8.00
   3   4   4   25.70   27.50
   3   4   4   32.90    9.30
   3   4   4   32.20    9.80
  -4  -4  -4 2768.52  141.19
  -4  -4  -4 2686.43  133.39
  -4  -4  -4 2476.55  216.28
  -4  -4  -4 2705.03  137.99
   4   4   4 2694.83  134.09
   4   4   4 2604.14  219.58
   4   4   4 2580.64  140.19
   4   4   4 2714.13  133.19
  -5  -4  -4 2059.49  107.79
  -5  -4  -4 2073.09  110.89
  -5  -4  -4 1881.91  185.28
  -5  -4  -4 1925.11  116.29
   5   4   4 2134.19  108.69
   5   4   4 2084.19  118.39
   5   4   4 2056.89  108.89
   5   4   4 2078.39  196.78
  -6  -4  -4  398.66   41.90
  -6  -4  -4  438.96   42.30
  -6  -4  -4  489.35   39.80
  -6  -4  -4  458.15   36.70
  -6  -4  -4  320.57   82.49
   6   4   4  287.27   79.49
   6   4   4  431.96   36.70
   6   4   4  432.46   35.90
   6   4   4  464.65   45.40
  -7  -4  -4  676.33  128.99
  -7  -4  -4  633.84   71.29
  -7  -4  -4  807.12   56.99
  -7  -4  -4  681.03   60.09
  -7  -4  -4  769.72   53.49
   7   4   4  757.52   64.19
   7   4   4  747.53   53.29
   7   4   4  615.74  135.19
   7   4   4  705.83   55.79
  -8  -4  -4 1499.45   86.99
  -8  -4  -4 1498.75  110.29
  -8  -4  -4 1241.58  104.39
  -8  -4  -4 1341.27   99.79
   8   4   4 1314.47   89.09
   8   4   4 1445.66  101.79
   8   4   4  661.33  238.48
   3  -5  -4 1291.67   87.89
   3  -5  -4 1136.09   78.09
   3  -5  -4 1224.98   93.19
  -3   5   4 1231.48  153.78
  -3   5   4 1308.87   79.39
  -3   5   4 1182.58   92.29
  -3   5   4 1416.96  189.58
   2  -5  -4  965.10   70.79
   2  -5  -4  934.51   76.69
  -2   5   4  939.91   76.59
  -2   5   4 1141.59  184.08
  -2   5   4 1477.85  246.18
  -2   5   4 1145.89   67.29
  -2   5   4  968.40   64.89
   1  -5  -4    4.50    5.90
   1  -5  -4    5.80   10.10
  -1   5   4    1.90    6.10
  -1   5   4   -4.60    5.30
  -1   5   4    2.70    5.30
  -1   5   4   -8.20    8.60
  -1   5   4   -7.30    6.80
   0  -5  -4 2080.39  110.79
   0  -5  -4 1868.91  121.09
   0   5   4 2100.09  109.59
   0   5   4 2246.28  109.89
   0   5   4 2012.80  189.08
   0   5   4 2121.89  123.99
  -1  -5  -4 2606.44  205.88
  -1  -5  -4 2321.17  143.19
   1   5   4 2679.13  130.39
   1   5   4 2762.72  227.28
   1   5   4 2650.23  131.19
   1   5   4 2666.23  142.99
  -2  -5  -4  221.58   24.90
  -2  -5  -4  209.48   23.10
  -2  -5  -4  225.18   35.70
  -2  -5  -4  155.38   50.69
   2   5   4  211.38   21.50
   2   5   4  196.88   20.60
   2   5   4  197.88   30.10
   2   5   4  236.68   84.79
  -3  -5  -4 1942.71  101.49
  -3  -5  -4 1902.01  111.29
  -3  -5  -4 1794.72  107.09
   3   5   4 2408.76  425.86
   3   5   4 1919.61  102.39
   3   5   4 1818.92   98.39
   3   5   4 1859.81  102.89
  -4  -5  -4 4337.97  215.48
  -4  -5  -4 4331.27  211.28
  -4  -5  -4 4037.50  311.47
  -4  -5  -4 4192.18  211.18
   4   5   4 4455.75  204.48
   4   5   4 3600.14  342.87
   4   5   4 4088.79  205.68
   4   5   4 4202.88  203.58
  -5  -5  -4 1003.70  139.59
  -5  -5  -4 1272.57   74.89
  -5  -5  -4 1200.18   82.09
  -5  -5  -4 1249.97   79.09
   5   5   4 1207.58  149.39
   5   5   4 1273.37   73.39
   5   5   4 1278.97   80.69
  -6  -5  -4  159.58   63.79
  -6  -5  -4  195.48   33.70
  -6  -5  -4  240.08   26.50
  -6  -5  -4  269.07   40.60
  -6  -5  -4  285.17   30.60
   6   5   4  286.47   33.50
   6   5   4  228.38   26.40
   6   5   4  243.58   25.80
   6   5   4  236.98   81.09
  -7  -5  -4 2052.79  114.79
  -7  -5  -4 1898.51  120.79
  -7  -5  -4 1913.21  120.49
  -7  -5  -4 2157.78  116.09
  -7  -5  -4 1963.60  210.28
   7   5   4 1852.71  110.99
   7   5   4 1821.32  106.69
   7   5   4 1969.20  122.29
   7   5   4 1704.13  203.38
  -8  -5  -4  842.02   75.59
  -8  -5  -4  845.42  178.88
  -8  -5  -4  866.81   75.09
  -8  -5  -4 1012.00   67.59
  -8  -5  -4  889.71   68.19
   8   5   4 1038.30   80.19
   8   5   4 1081.39  216.78
   8   5   4  868.61   63.89
   2  -6  -4   23.30   14.60
   2  -6  -4   33.40   17.40
   2  -6  -4   16.20   11.20
  -2   6   4   32.50   11.70
  -2   6   4   10.90   24.90
  -2   6   4    8.40   22.30
  -2   6   4   16.60   19.10
   1  -6  -4  702.03   53.89
  -1   6   4  748.23   67.09
  -1   6   4  574.64  123.29
  -1   6   4  771.82   50.59
  -1   6   4  655.73  128.09
   0  -6  -4 2515.85  132.69
   0  -6  -4 2395.56  145.19
   0   6   4 2409.26  239.68
   0   6   4 2242.68  141.79
   0   6   4 2413.46  227.58
   0   6   4 2686.23  129.49
  -1  -6  -4  776.62   54.99
  -1  -6  -4  652.93   60.99
  -1  -6  -4  786.92  138.09
   1   6   4  822.62   51.89
   1   6   4  777.52   52.09
   1   6   4  718.13  136.59
   1   6   4  796.32   61.79
  -2  -6  -4  143.69   59.69
  -2  -6  -4  175.68   34.00
   2   6   4  253.37   29.60
   2   6   4  253.67   92.59
   2   6   4  256.97   24.60
  -3  -6  -4 2150.98  140.89
  -3  -6  -4 2331.27  213.18
  -3  -6  -4 2607.34  131.59
  -3  -6  -4 2597.24  139.19
   3   6   4 2357.86  226.58
   3   6   4 2522.45  132.39
   3   6   4 2390.06  126.29
   3   6   4 2640.24  128.79
  -4  -6  -4 1983.20  124.89
  -4  -6  -4 1966.60  203.78
  -4  -6  -4 2121.99  125.49
   4   6   4 2022.50  206.68
   4   6   4 2138.79  113.39
   4   6   4 2138.89  113.19
  -5  -6  -4   10.40   10.10
  -5  -6  -4    7.50    7.40
  -5  -6  -4   -2.50   10.90
  -5  -6  -4   11.10   11.30
   5   6   4   -2.30    2.40
   5   6   4   16.40   26.60
   5   6   4    4.30    5.60
   5   6   4    5.60    6.90
  -6  -6  -4 1448.16  106.89
  -6  -6  -4 1711.43  101.79
  -6  -6  -4 1541.35  186.78
  -6  -6  -4 1579.04   94.09
  -6  -6  -4 1627.14  103.39
   6   6   4 1554.34   96.49
   6   6   4 1142.59  239.38
  -7  -6  -4 1723.53  114.99
  -7  -6  -4 1800.02  106.19
  -7  -6  -4 1765.92  209.98
  -7  -6  -4 1908.71  113.09
  -7  -6  -4 1717.63  115.39
   7   6   4 1752.42  101.69
   7   6   4 1917.21  113.99
   7   6   4 1859.41  108.59
   7   6   4 1688.83  202.98
  -8  -6  -4   66.09   59.99
  -8  -6  -4  108.99   35.60
  -8  -6  -4  154.38   28.30
  -8  -6  -4   69.49   26.60
  -8  -6  -4  108.19   25.00
   8   6   4  100.89   22.20
   8   6   4  251.87  106.99
   8   6   4  119.39   28.50
   1  -7  -4  918.71   72.89
   1  -7  -4 1001.30   80.49
   1  -7  -4  891.91   66.39
  -1   7   4 1251.57  239.78
  -1   7   4  800.82  175.08
  -1   7   4  847.32   77.49
  -1   7   4  629.64   69.29
   0  -7  -4  922.51   67.19
   0  -7  -4  876.81   75.69
   0   7   4  885.41   76.09
   0   7   4  932.71   60.59
   0   7   4 1009.90  189.88
   0   7   4  712.03  153.78
  -1  -7  -4   83.59   25.50
  -1  -7  -4   44.90   16.40
   1   7   4   24.90   46.10
   1   7   4   45.00   18.60
   1   7   4   62.09   14.70
  -2  -7  -4 1443.66  106.69
  -2  -7  -4 1748.72  175.28
  -2  -7  -4 1710.73  102.29
   2   7   4 1433.06  184.88
   2   7   4 1665.33   91.49
   2   7   4 1730.63  105.09
  -3  -7  -4 1416.76  104.19
  -3  -7  -4 1704.53   96.39
  -3  -7  -4 1446.16  162.68
  -3  -7  -4 1468.05  108.39
   3   7   4 1204.28  112.19
   3   7   4 1726.53   89.29
   3   7   4 1615.14  189.48
  -4  -7  -4  228.48   27.20
  -4  -7  -4  179.08   36.60
  -4  -7  -4  192.08   72.69
   4   7   4  215.18   23.80
   4   7   4  176.78   42.60
   4   7   4  193.98   23.50
   4   7   4  232.98   82.79
  -5  -7  -4  710.03   64.79
  -5  -7  -4  825.12   69.89
  -5  -7  -4  958.00   74.59
  -5  -7  -4  830.82   65.09
  -5  -7  -4 1069.99  197.98
   5   7   4  631.04  134.49
   5   7   4  855.61   59.09
   5   7   4  829.72   57.99
   5   7   4  827.92   56.89
  -6  -7  -4 1769.12  120.19
  -6  -7  -4 1879.51  215.68
  -6  -7  -4 2006.30  113.19
  -6  -7  -4 1998.40  123.29
  -6  -7  -4 2023.90  124.09
   6   7   4 1918.31  213.78
   6   7   4 1893.21  111.79
   6   7   4 1828.72  109.69
   6   7   4 1983.40  107.59
  -7  -7  -4  379.96   42.90
  -7  -7  -4  434.16   41.60
  -7  -7  -4  349.57   53.29
  -7  -7  -4  266.07   45.50
  -7  -7  -4  224.08   92.69
   7   7   4  373.86   39.70
   7   7   4  322.07   36.50
   7   7   4  336.37   33.90
   7   7   4  457.35  132.79
  -1  -8  -4  308.17   51.29
  -1  -8  -4  406.16   43.10
   1   8   4  321.57   73.59
   1   8   4  318.27   31.90
  -2  -8  -4 1154.48   87.89
  -2  -8  -4  989.40   76.99
   2   8   4 1184.18   67.39
   2   8   4 1028.90  195.98
   2   8   4 1028.10   74.69
   2   8   4  743.43   76.89
  -3  -8  -4  153.58   36.40
  -3  -8  -4  168.78   34.30
  -3  -8  -4  177.58   68.59
   3   8   4  165.58   72.39
   3   8   4  125.29   27.00
   3   8   4  167.28   25.50
   3   8   4  129.29   23.60
  -4  -8  -4  223.38   87.29
  -4  -8  -4  144.89   35.10
  -4  -8  -4  187.68   39.30
  -4  -8  -4  216.48   34.10
   4   8   4  177.98   36.10
   4   8   4  209.78   23.80
   4   8   4  322.17  111.19
   4   8   4  149.09   25.50
  -5  -8  -4 1291.17   85.39
  -5  -8  -4 1331.37   97.59
  -5  -8  -4 1191.28  159.28
  -5  -8  -4 1408.26  104.09
   5   8   4 1166.18   81.09
   5   8   4 1352.16   78.79
   5   8   4 1252.07   78.39
   5   8   4  979.80  191.08
  -6  -8  -4  552.44  127.19
  -6  -8  -4  773.62   68.49
  -6  -8  -4  789.02   71.19
  -6  -8  -4  550.04   61.29
  -6  -8  -4  765.82   60.39
   6   8   4  674.63   56.59
   6   8   4  717.83   52.59
   6   8   4  453.85  122.29
   6   8   4  757.62   54.19
  -4  -6   5   18.20   14.60
  -3  -6   5   61.89   15.80
  -2  -6   5  202.88   31.40
  -1  -6   5   68.79   20.70
  -6  -5   5   81.89   22.30
  -6  -5   5   73.29   14.90
  -6  -5   5   49.20   16.40
  -6  -5   5   51.39   12.80
  -5  -5   5  121.09   24.10
  -4  -5   5   40.60   12.40
  -3  -5   5   27.30   10.50
  -2  -5   5  263.67   27.90
  -1  -5   5   45.30   15.50
   0  -5   5   25.20   12.90
   0  -5   5   75.69   13.70
   0  -5   5   65.69   12.90
  -1   5  -5  129.59   46.30
   1  -5   5  116.19   26.90
   1  -5   5  110.79   19.50
   1  -5   5   77.79   16.00
  -6  -4   5   69.59   19.80
  -6  -4   5  104.49   17.80
  -6  -4   5  106.19   19.40
  -6  -4   5   70.19   16.20
  -6  -4   5   61.29   33.10
  -5  -4   5  473.85   39.80
  -5  -4   5  453.35   49.99
  -5  -4   5  521.45   34.10
  -4  -4   5  111.89   21.10
  -3  -4   5   84.49   17.00
  -2  -4   5  381.96   29.20
  -1  -4   5  232.58   24.60
   0  -4   5   97.89   11.20
   0  -4   5  104.19   12.30
   0  -4   5   96.59   20.50
  -1   4  -5  173.18   72.89
  -1   4  -5  171.98   44.10
   1  -4   5  157.98   28.50
   1  -4   5  162.88   18.10
   1  -4   5  140.99   16.10
  -2   4  -5   41.80   29.50
  -2   4  -5   77.39   35.80
   2  -4   5   66.29   14.90
   2  -4   5   99.19   19.50
   2  -4   5   95.99   24.20
  -3   4  -5   -0.40   14.90
  -3   4  -5    9.60    9.80
  -3   4  -5    3.30    7.30
  -3   4  -5   12.70   21.10
   3  -4   5   10.80    7.70
   3  -4   5   13.30   10.00
   3  -4   5    1.70    9.60
   7   3  -5   56.79   13.00
   7   3  -5  103.29   18.90
  -7  -3   5  109.49   24.40
  -7  -3   5   65.79   19.60
  -7  -3   5   89.99   18.00
  -6  -3   5  864.51   56.59
  -6  -3   5  770.12   61.39
  -6  -3   5  862.51   54.99
  -6  -3   5  957.00  110.79
  -5  -3   5  829.02   52.49
  -5  -3   5  892.51   92.79
  -5  -3   5  869.51   61.19
  -5  -3   5  889.51   51.89
  -4  -3   5   16.80    8.80
  -4  -3   5   14.10   16.60
  -4  -3   5    6.20    4.50
  -4  -3   5   10.90    9.70
  -4  -3   5   12.20    5.70
  -3  -3   5  702.23   47.90
  -2  -3   5 1335.87   72.99
  -1  -3   5  481.85   31.50
  -1  -3   5  503.45   36.00
   0  -3   5  159.78   12.50
   0  -3   5  158.98   24.90
   0  -3   5  154.28   13.40
  -1   3  -5  823.42   77.19
   1  -3   5  925.91   51.29
   1  -3   5  816.02   47.40
   1  -3   5  893.41   60.49
  -2   3  -5  239.08   61.19
  -2   3  -5  178.68   15.10
   2  -3   5  167.78   18.40
   2  -3   5  183.88   30.00
   2  -3   5  222.08   22.50
  -3   3  -5   89.39   41.40
  -3   3  -5   84.19   18.70
  -3   3  -5   97.39   15.40
   3  -3   5   79.19   18.30
   3  -3   5   52.79   39.20
   3  -3   5   93.89   18.50
   3  -3   5   77.09   22.70
  -4   3  -5  219.78   22.50
  -4   3  -5  136.79   27.70
   4  -3   5  221.28   31.50
   4  -3   5  195.38   35.90
   4  -3   5  184.88   77.49
   4  -3   5  219.88   35.40
   7   2  -5  636.54   50.49
  -7  -2   5  625.94   49.60
  -7  -2   5  724.33   58.39
   6   2  -5 1320.67   69.39
   6   2  -5 1412.56   77.29
  -6  -2   5 1235.68   78.99
  -6  -2   5 1229.28  141.99
  -6  -2   5 1337.47   76.89
  -6  -2   5 1214.28   83.79
   5   2  -5  344.37   26.90
  -5  -2   5  320.87   33.90
  -5  -2   5  348.27   78.49
  -5  -2   5  317.97   27.10
  -5  -2   5  372.96   30.80
  -4  -2   5  608.84   40.40
  -4  -2   5  675.33   39.10
  -4  -2   5  633.64   73.79
  -3  -2   5 2751.02  127.29
  -3  -2   5 2917.31  161.38
  -3  -2   5 2711.83  146.19
  -2  -2   5  779.22   43.10
  -1  -2   5  128.29   13.80
   0  -2   5 2372.86  126.49
  -1   2  -5 1456.75  103.39
   1  -2   5 1417.96   71.69
   1  -2   5 1507.35  116.79
   1  -2   5 1486.15   74.19
   1  -2   5 1445.36   83.29
  -2   2  -5   28.30   20.20
  -2   2  -5   18.70    5.90
   2  -2   5   22.50    8.80
   2  -2   5   34.20    8.60
   2  -2   5    6.70    7.20
  -3   2  -5  261.17   22.00
  -3   2  -5  388.96   84.99
   3  -2   5  289.77   28.00
   3  -2   5  256.87   24.60
   3  -2   5  349.57   36.00
  -4   2  -5 1199.58  132.89
  -4   2  -5  972.00   69.89
   4  -2   5 1270.07   92.29
   4  -2   5 1196.08   82.39
   4  -2   5 1066.69   67.19
   4  -2   5  781.12  146.19
  -5   2  -5   62.69   15.50
  -5   2  -5   23.00   15.40
  -5   2  -5   27.70   27.80
   5  -2   5   55.39   21.60
   5  -2   5   73.09   61.79
   5  -2   5   32.80   13.50
   5  -2   5   66.79   19.50
   6   1  -5  252.37   24.80
   6   1  -5  307.07   32.20
  -6  -1   5  320.07   30.30
  -6  -1   5  262.27   90.19
  -6  -1   5  307.97   34.60
   5   1  -5  224.78   20.20
   5   1  -5  245.78   25.20
  -5  -1   5  162.08   64.19
  -5  -1   5  269.07   24.70
   4   1  -5 2477.05  121.69
   4   1  -5 2461.05  116.09
  -4  -1   5 2441.56  189.58
   3   1  -5 2160.78   98.89
   3   1  -5 2064.89   95.59
  -3  -1   5 1968.80  128.99
  -3  -1   5 2102.09  103.09
  -3  -1   5 1955.70  147.59
  -2  -1   5    3.30    3.30
  -2  -1   5   10.20    4.40
  -2  -1   5   10.00    8.40
  -2  -1   5    0.60    7.10
  -1  -1   5 1689.23   81.69
   0  -1   5 3196.18  149.09
   0  -1   5 3432.06  156.08
  -1   1  -5  304.07   39.80
   1  -1   5  331.67   27.60
   1  -1   5  320.37   22.50
   1  -1   5  324.37   55.49
   1  -1   5  331.67   21.60
  -2   1  -5 1515.55   82.99
  -2   1  -5 1403.46   74.19
  -2   1  -5 1368.16  113.09
  -2   1  -5 1372.26   70.09
   2  -1   5 1465.75  126.99
   2  -1   5 1388.56   75.19
   2  -1   5 1454.45   82.69
  -3   1  -5 2957.20  200.98
  -3   1  -5 2535.45  156.78
  -3   1  -5 2636.54  138.29
   3  -1   5 2792.92  137.19
   3  -1   5 2732.63  144.39
   3  -1   5 2786.52  216.78
   3  -1   5 2592.44  131.99
  -4   1  -5  410.36   32.00
  -4   1  -5  417.66   94.69
   4  -1   5  498.05   40.30
   4  -1   5  442.26   35.40
   4  -1   5  475.35   44.30
  -5   1  -5  151.48   29.40
  -5   1  -5  115.89   51.49
  -5   1  -5  160.88   30.90
  -5   1  -5  182.78   20.90
   5  -1   5  149.29   26.90
   5  -1   5  127.99   31.50
   5  -1   5  166.98   73.89
  -6   1  -5  630.94   60.09
  -6   1  -5  653.73   49.70
  -6   1  -5  742.53  147.89
   6  -1   5  670.93   54.49
   6  -1   5  727.93   66.79
   6  -1   5  489.45  145.69
   6  -1   5  716.43   60.39
   6   0  -5    4.60    8.10
   6   0  -5    1.20    6.40
  -6   0   5   -6.60   13.10
  -6   0   5    0.20    5.10
  -6   0   5    5.70    6.90
   5   0  -5 1570.94   93.59
  -5   0   5 1423.46  166.08
  -5   0   5 1527.85   92.79
  -5   0   5 1579.94   88.09
  -4   0   5 1768.02   92.19
  -4   0   5 1625.44  162.98
  -4   0   5 1746.73   96.79
   3   0  -5  330.37   26.50
   3   0  -5  273.87   20.60
  -3   0   5  351.76   79.19
  -3   0   5  292.67   25.70
  -3   0   5  311.17   60.79
  -3   0   5  298.97   23.70
   2   0  -5 2010.30   96.39
   2   0  -5 2105.69  100.79
  -2   0   5 2169.58  156.18
  -2   0   5 2070.09  132.19
  -2   0   5 1992.50  102.09
  -2   0   5 2057.39   98.59
   1   0  -5 5912.81  254.47
   1   0  -5 5658.53  253.87
  -1   0   5 5595.14  291.47
   0   0  -5  631.94   35.60
   0   0  -5  634.24   33.60
   0   0  -5  635.24   58.99
   0   0   5  723.73   63.59
   0   0   5  566.04   34.80
   0   0   5  612.84   36.00
  -1   0  -5  347.07   26.50
  -1   0  -5  371.06   24.20
  -1   0  -5  370.76   23.60
  -1   0  -5  364.16   46.30
   1   0   5  341.77   23.70
   1   0   5  362.56   26.00
   1   0   5  354.86   48.00
   1   0   5  339.47   25.00
  -2   0  -5 3707.13  176.18
  -2   0  -5 3742.33  225.58
  -2   0  -5 3808.32  181.78
  -2   0  -5 3577.94  172.58
   2   0   5 3785.32  177.28
   2   0   5 4081.49  191.58
   2   0   5 3783.92  237.48
   2   0   5 3824.52  175.28
  -3   0  -5 2774.82  140.59
  -3   0  -5 2786.52  134.19
  -3   0  -5 2757.12  144.59
  -3   0  -5 2813.42  196.88
   3   0   5 2760.32  211.98
   3   0   5 3026.80  147.29
  -4   0  -5   45.00   28.20
  -4   0  -5   15.60    8.50
  -4   0  -5   33.50    9.50
   4   0   5   32.20   10.50
   4   0   5   24.40   31.40
   4   0   5   19.30   11.40
   4   0   5   41.90   14.00
  -5   0  -5 1201.88   71.79
  -5   0  -5 1239.38   81.29
  -5   0  -5 1218.78  141.09
   5   0   5 1260.67   86.59
   5   0   5 1306.97   81.59
   5   0   5 1228.68   75.19
  -6   0  -5 1287.37  157.58
  -6   0  -5 1178.48   86.19
  -6   0  -5 1116.79   84.79
  -6   0  -5 1359.26   77.19
   6   0   5  832.72  173.88
   6   0   5 1268.57   79.89
   6   0   5 1262.27   92.19
   6  -1  -5  798.42   64.49
   6  -1  -5  568.44   47.00
  -6   1   5  628.04   50.49
  -6   1   5  758.82  138.99
  -6   1   5  626.84   56.79
  -6   1   5  454.95  120.19
   5  -1  -5 1894.71  115.29
   5  -1  -5 1909.41  102.39
  -5   1   5 1898.01  112.59
  -5   1   5 1991.10  106.99
  -5   1   5 1745.23  208.78
  -5   1   5 1895.81  170.38
   4  -1  -5  554.64   46.30
   4  -1  -5  519.55   37.00
  -4   1   5  541.35   44.00
  -4   1   5  558.94   40.50
  -4   1   5  583.94  101.49
  -4   1   5  530.85  115.49
   3  -1  -5  602.04   46.30
   3  -1  -5  614.04   39.10
  -3   1   5  687.43   46.90
  -3   1   5  660.23   42.20
  -3   1   5  552.34  109.39
  -3   1   5  606.84   73.99
   2  -1  -5 4700.63  212.88
   2  -1  -5 4187.48  202.48
  -2   1   5 4492.25  255.07
  -2   1   5 4666.53  211.58
  -2   1   5 4385.96  205.18
  -2   1   5 4361.26  288.77
   1  -1  -5 2964.60  140.99
  -1   1   5 3085.09  143.39
  -1   1   5 3076.79  147.39
  -1   1   5 3091.29  187.08
   0  -1  -5   34.90    6.60
   0  -1  -5   41.80    9.50
   0  -1  -5   18.30   15.10
   0   1   5   69.19   30.40
   0   1   5   23.50    7.20
   0   1   5   39.30   10.20
   0   1   5   46.80    8.70
  -1  -1  -5 3827.12  179.18
  -1  -1  -5 4128.99  236.88
  -1  -1  -5 3948.41  178.08
   1   1   5 3664.53  179.38
   1   1   5 4011.00  236.58
   1   1   5 3855.11  180.38
   1   1   5 3808.82  181.38
  -2  -1  -5 5720.43  310.07
  -2  -1  -5 5620.54  253.47
  -2  -1  -5 5400.76  248.88
  -2  -1  -5 5429.36  251.17
   2   1   5 5413.66  253.17
   2   1   5 5733.13  248.88
   2   1   5 5194.48  249.28
   2   1   5 5395.46  320.97
   2   1   5 5511.25  254.47
  -3  -1  -5  229.68   20.00
  -3  -1  -5  277.27   25.60
  -3  -1  -5  232.78   23.20
  -3  -1  -5  209.18   57.09
  -3  -1  -5  204.18   17.90
   3   1   5  254.57   19.10
   3   1   5  266.17   69.09
   3   1   5  221.38   22.80
   3   1   5  237.18   25.40
   3   1   5  198.08   19.70
  -4  -1  -5 1134.19   72.19
  -4  -1  -5 1126.69  121.09
  -4  -1  -5 1143.89   70.69
  -4  -1  -5  921.11   61.19
   4   1   5 1241.48   66.89
   4   1   5 1277.57  150.18
   4   1   5 1093.49   73.09
   4   1   5 1166.68   70.29
  -5  -1  -5 2702.23  133.69
  -5  -1  -5 2854.31  224.48
  -5  -1  -5 2519.65  135.99
  -5  -1  -5 2537.45  142.59
   5   1   5 2541.25  146.59
   5   1   5 2560.54  140.59
   5   1   5 2708.43  135.69
   5   1   5 2785.52  245.98
  -6  -1  -5 1184.68  146.49
  -6  -1  -5 1072.59   79.09
  -6  -1  -5  947.71   75.89
  -6  -1  -5 1079.99   74.49
  -6  -1  -5 1121.69   62.29
   6   1   5 1163.98   81.99
   6   1   5 1078.49   76.29
   6   1   5 1094.39   85.99
  -7  -1  -5  129.29   24.20
  -7  -1  -5   91.69   28.30
  -7  -1  -5   75.59   60.29
  -7  -1  -5   80.89   29.70
  -7  -1  -5  171.68   19.70
   7   1   5  161.78   36.10
   7   1   5  119.99   25.90
   7   1   5  146.89   31.50
   5  -2  -5  536.85   42.40
  -5   2   5  450.45  118.09
  -5   2   5  460.85   94.39
  -5   2   5  541.45   52.19
   4  -2  -5  153.98   23.80
   4  -2  -5  172.48   32.10
  -4   2   5  169.18   25.00
  -4   2   5  143.29   70.59
  -4   2   5   89.09   39.90
  -4   2   5  143.49   27.00
   3  -2  -5 2251.77  130.29
   3  -2  -5 2416.86  119.79
  -3   2   5 2497.15  122.49
  -3   2   5 2383.06  248.38
  -3   2   5 2221.48  177.18
   2  -2  -5 2811.22  136.29
   2  -2  -5 2943.31  148.59
  -2   2   5 2822.22  230.18
  -2   2   5 2784.92  144.59
  -2   2   5 2816.32  193.98
  -2   2   5 2780.82  137.59
   1  -2  -5  156.58   24.50
   1  -2  -5  146.99   15.10
  -1   2   5  136.09   26.70
  -1   2   5  134.99   41.90
  -1   2   5  173.68   19.90
   0  -2  -5 2828.72  133.49
   0  -2  -5 2768.32  140.19
   0  -2  -5 2792.42  191.38
   0  -2  -5 2846.82  129.19
   0   2   5 2869.71  191.48
   0   2   5 2649.63  133.59
   0   2   5 2781.42  140.39
  -1  -2  -5 6396.06  362.46
  -1  -2  -5 6634.64  289.67
  -1  -2  -5 6549.74  299.27
  -1  -2  -5 6354.36  294.27
   1   2   5 6673.53  366.16
   1   2   5 6439.66  294.97
   1   2   5 6178.88  294.97
  -2  -2  -5 2692.63  136.09
  -2  -2  -5 2708.33  138.29
  -2  -2  -5 2754.12  134.79
  -2  -2  -5 2837.02  197.38
   2   2   5 2907.81  138.49
   2   2   5 2529.55  133.29
   2   2   5 2793.92  202.58
  -3  -2  -5  520.35   36.10
  -3  -2  -5  474.35   38.40
  -3  -2  -5  518.15   34.20
  -3  -2  -5  557.94   92.89
  -3  -2  -5  566.74   39.30
   3   2   5  520.05   36.50
   3   2   5  543.85   35.00
   3   2   5  561.54   41.70
   3   2   5  460.55   90.69
   3   2   5  523.05   42.00
  -4  -2  -5 3709.53  181.38
  -4  -2  -5 3505.95  181.38
  -4  -2  -5 3755.12  256.77
  -4  -2  -5 3745.73  175.08
   4   2   5 3570.24  170.78
   4   2   5 3659.43  185.18
   4   2   5 3707.93  182.68
   4   2   5 3638.54  175.68
   4   2   5 3340.27  263.67
  -5  -2  -5 1732.93  106.09
  -5  -2  -5 1801.12   93.19
  -5  -2  -5 1802.42   97.09
   5   2   5 1779.52  104.59
   5   2   5 1849.91  109.59
   5   2   5 1810.82   97.99
   5   2   5 1773.72   93.59
  -6  -2  -5    1.80    2.90
  -6  -2  -5   10.50   11.10
  -6  -2  -5   19.10    8.50
  -6  -2  -5   -3.90    8.50
  -6  -2  -5   13.30   10.80
   6   2   5   10.50    8.70
   6   2   5   -0.30    8.00
   6   2   5    7.90    9.60
   6   2   5   -5.40   10.90
  -7  -2  -5 1180.48  155.98
  -7  -2  -5  963.40   81.79
  -7  -2  -5 1002.50   81.29
  -7  -2  -5 1236.28   69.19
   7   2   5 1195.78   89.29
   7   2   5  994.60   72.39
   7   2   5 1240.08   84.99
   5  -3  -5   32.60   19.10
   5  -3  -5   23.80   12.20
   5  -3  -5   66.29   17.10
  -5   3   5    0.80   23.80
  -5   3   5   18.00   24.30
  -5   3   5   15.70   12.70
  -5   3   5   46.00   16.50
   4  -3  -5  523.95   52.29
   4  -3  -5  471.95   37.50
  -4   3   5  487.55   50.09
  -4   3   5  436.46  127.49
  -4   3   5  493.55   41.90
   3  -3  -5 1984.00   99.49
   3  -3  -5 1639.04  121.49
  -3   3   5 1721.33  162.08
  -3   3   5 1916.31  102.39
  -3   3   5 1856.51  110.79
  -3   3   5 1758.02  198.38
   2  -3  -5  409.46   32.30
   2  -3  -5  429.36   31.50
   2  -3  -5  488.55   44.00
  -2   3   5  398.56   85.99
  -2   3   5  461.35   34.40
  -2   3   5  346.17   36.30
  -2   3   5  488.65  128.19
   1  -3  -5  556.44   45.80
   1  -3  -5  529.25   36.00
  -1   3   5  487.85   43.40
  -1   3   5  526.45   36.90
  -1   3   5  405.96   72.99
   0  -3  -5 3157.68  164.28
   0  -3  -5 3231.78  153.48
   0  -3  -5 3374.46  226.98
   0   3   5 3105.39  220.48
   0   3   5 3221.18  154.08
   0   3   5 3216.68  159.58
   0   3   5 3118.09  162.98
  -1  -3  -5 1834.22  104.29
  -1  -3  -5 1716.83  153.88
  -1  -3  -5 1830.82   94.69
  -1  -3  -5 1818.92   96.89
   1   3   5 1857.11   97.99
   1   3   5 2040.40  165.38
   1   3   5 1866.91   96.89
   1   3   5 1932.31  102.59
  -2  -3  -5  732.33   57.29
  -2  -3  -5  790.52   48.80
  -2  -3  -5  778.32   52.09
  -2  -3  -5  822.42  100.29
  -2  -3  -5  758.82   52.49
   2   3   5  711.73   49.60
   2   3   5  792.02   51.19
   2   3   5  703.63   93.79
   2   3   5  795.52   48.90
  -3  -3  -5 2804.62  208.38
  -3  -3  -5 2516.95  124.59
  -3  -3  -5 2434.86  128.09
  -3  -3  -5 2502.55  132.19
  -3  -3  -5 2363.86  127.39
   3   3   5 2593.04  125.59
   3   3   5 2755.42  134.19
   3   3   5 2395.16  203.68
   3   3   5 2479.85  127.49
  -4  -3  -5 3154.08  237.18
  -4  -3  -5 3140.69  160.28
  -4  -3  -5 3122.49  163.18
  -4  -3  -5 3140.79  153.18
  -4  -3  -5 3128.09  155.98
   4   3   5 3162.98  156.18
   4   3   5 3115.79  153.08
   4   3   5 2861.51  240.78
   4   3   5 3541.15  176.28
   4   3   5 3180.48  165.68
  -5  -3  -5  390.16   39.50
  -5  -3  -5  592.84  122.39
  -5  -3  -5  391.46   31.70
   5   3   5  429.46  113.39
   5   3   5  368.16   38.70
   5   3   5  374.36   31.40
   5   3   5  398.66   39.00
   5   3   5  426.56   34.60
  -6  -3  -5 1377.46   80.29
  -6  -3  -5 1408.96   91.99
  -6  -3  -5 1435.26   84.69
  -6  -3  -5 1818.82  391.76
   6   3   5 1150.78  281.97
   6   3   5 1371.46   81.49
   6   3   5 1441.06   84.49
   6   3   5 1511.35   97.09
   6   3   5 1481.15   94.79
  -7  -3  -5 1722.93  194.78
  -7  -3  -5 1828.42  103.19
  -7  -3  -5 1570.44  111.89
  -7  -3  -5 1862.51   98.29
  -7  -3  -5 1623.34  110.39
   7   3   5 1703.23  212.88
   7   3   5 1637.54  100.49
   7   3   5 1821.22  116.69
   7   3   5 1767.42  113.39
  -8  -3  -5  192.18   73.09
  -8  -3  -5  253.17   47.90
  -8  -3  -5  467.45   38.50
  -8  -3  -5  449.95   42.20
  -8  -3  -5  333.27   57.19
   8   3   5  363.96   40.10
   8   3   5  393.46   58.59
   8   3   5  438.56   49.99
   4  -4  -5  463.75   51.99
   4  -4  -5  352.96   37.40
   4  -4  -5  401.46   38.70
  -4   4   5  433.06  138.49
  -4   4   5  427.76   39.70
   3  -4  -5  381.36   36.10
   3  -4  -5  453.65   39.30
   3  -4  -5  466.85   49.00
  -3   4   5  323.87   77.69
  -3   4   5  453.85   38.40
  -3   4   5  388.86   43.70
   2  -4  -5   70.39   17.20
   2  -4  -5   83.19   24.90
  -2   4   5   80.69   16.70
  -2   4   5   76.79   22.90
  -2   4   5   44.90   44.50
   1  -4  -5  770.52   72.89
   1  -4  -5  843.02   53.69
  -1   4   5  925.51   55.29
  -1   4   5  742.03   55.79
  -1   4   5  923.41   65.59
  -1   4   5  813.52  164.78
  -1   4   5  825.72  105.69
   0  -4  -5 1486.05   83.89
   0  -4  -5 1450.25   95.29
   0  -4  -5 1430.86  144.59
   0   4   5 1718.93  156.28
   0   4   5 1548.25   95.19
   0   4   5 1563.94   87.39
   0   4   5 1620.44   84.69
  -1  -4  -5   95.99   22.50
  -1  -4  -5  101.79   18.50
  -1  -4  -5   62.89   34.80
   1   4   5  104.49   21.20
   1   4   5   85.29   43.00
   1   4   5   75.29   15.70
   1   4   5   86.49   16.70
  -2  -4  -5 1275.57   71.89
  -2  -4  -5 1056.29   68.69
  -2  -4  -5 1068.79  126.09
  -2  -4  -5 1152.08   77.49
  -2  -4  -5 1217.18   72.79
   2   4   5 1259.57   71.69
   2   4   5 1272.97   70.29
   2   4   5 1171.08   73.49
   2   4   5  988.40  124.59
  -3  -4  -5 2143.49  120.19
  -3  -4  -5 2162.78  195.68
  -3  -4  -5 2165.08  117.69
  -3  -4  -5 2195.88  113.99
  -3  -4  -5 2295.37  122.99
   3   4   5 2067.99  193.48
   3   4   5 2269.87  120.69
   3   4   5 2225.18  117.89
   3   4   5 2337.57  114.99
  -4  -4  -5  512.75   43.80
  -4  -4  -5  500.55  111.09
  -4  -4  -5  513.85   38.20
  -4  -4  -5  514.35   41.90
   4   4   5  436.06   40.80
   4   4   5  679.53  140.89
   4   4   5  504.95   38.90
   4   4   5  521.05   38.10
  -5  -4  -5 1655.13  168.68
  -5  -4  -5 1428.36   83.29
  -5  -4  -5 1234.98   86.79
   5   4   5 1409.76   80.89
   5   4   5 1371.56  162.38
  -6  -4  -5 1523.55  102.49
  -6  -4  -5 1447.86  168.48
  -6  -4  -5 1690.73   92.69
  -6  -4  -5 1561.64   94.39
   6   4   5 1697.13  104.99
   6   4   5 1662.53   93.59
   6   4   5 1676.23  190.98
   6   4   5 1626.84   93.49
  -7  -4  -5  706.93   61.19
  -7  -4  -5  679.23   50.79
  -7  -4  -5  687.73   63.49
  -7  -4  -5  748.73   56.19
  -7  -4  -5  788.42  248.88
   7   4   5  647.54   52.09
   7   4   5  725.33   63.39
   7   4   5  709.93   58.89
   7   4   5  673.43  259.17
  -8  -4  -5   -1.60   16.40
  -8  -4  -5   -2.10    8.60
  -8  -4  -5    0.50    6.40
  -8  -4  -5    2.20   11.40
  -8  -4  -5    6.40    8.70
   8   4   5   -3.90    7.90
   8   4   5    3.90    8.30
   8   4   5   -7.80   17.30
   3  -5  -5   59.19   21.40
   3  -5  -5   51.49   18.10
   3  -5  -5   24.60   19.80
  -3   5   5   34.50   20.30
  -3   5   5   54.49   19.30
  -3   5   5   73.79   19.30
  -3   5   5   35.10   33.40
  -3   5   5  110.69   65.59
   2  -5  -5   92.39   27.10
   2  -5  -5   81.19   21.40
  -2   5   5  120.99   21.70
  -2   5   5   86.89   31.60
  -2   5   5   41.00   35.70
  -2   5   5   38.80   44.00
   1  -5  -5  606.74   45.90
   1  -5  -5  604.94   57.59
  -1   5   5  628.84   46.90
  -1   5   5  586.94   55.39
  -1   5   5  673.33   45.90
  -1   5   5  572.14  112.29
  -1   5   5  401.96  102.19
   0  -5  -5  145.39   23.30
   0  -5  -5  204.78   38.60
   0   5   5  180.08   21.90
   0   5   5  143.19   29.70
   0   5   5  169.48   59.59
  -1  -5  -5  435.16   90.99
  -1  -5  -5  500.75   40.50
  -1  -5  -5  479.75   47.80
   1   5   5  649.93   50.99
   1   5   5  539.05  115.39
   1   5   5  560.54   40.40
   1   5   5  527.45   40.00
  -2  -5  -5  998.20   65.99
  -2  -5  -5  988.40   73.49
  -2  -5  -5  944.81  121.19
   2   5   5 1076.29   63.49
   2   5   5 1018.50   63.69
   2   5   5  982.70   68.29
   2   5   5 1025.50  132.49
  -3  -5  -5  642.04   54.39
  -3  -5  -5  685.13   47.70
  -3  -5  -5  670.33   52.69
  -3  -5  -5  601.84   48.80
  -3  -5  -5  446.06   94.99
   3   5   5  696.23   50.39
   3   5   5  681.93   46.50
   3   5   5  617.84  137.39
   3   5   5  732.73   50.29
  -4  -5  -5   61.89   39.30
  -4  -5  -5   30.40   11.20
  -4  -5  -5   36.00   14.20
  -4  -5  -5   17.10   10.60
  -4  -5  -5   12.80   10.10
   4   5   5   67.09   49.10
   4   5   5   31.70   12.30
   4   5   5   20.30   10.40
  -5  -5  -5 1109.09   69.69
  -5  -5  -5 1220.98  153.28
  -5  -5  -5 1088.09   78.19
  -5  -5  -5 1146.69   75.09
   5   5   5 1104.09   69.39
   5   5   5 1119.09   76.49
   5   5   5 1169.18   72.09
   5   5   5 1385.46  225.88
  -6  -5  -5 1215.08   78.79
  -6  -5  -5 1196.98   84.79
  -6  -5  -5 1167.78  154.88
  -6  -5  -5 1170.78   74.39
   6   5   5 1160.58   74.59
   6   5   5 1218.48   75.59
   6   5   5 1112.39  198.18
   6   5   5 1170.18  116.29
  -7  -5  -5   23.20   15.40
  -7  -5  -5   19.90   14.70
  -7  -5  -5   32.00   32.60
  -7  -5  -5   70.29   17.60
  -7  -5  -5   52.49   15.60
   7   5   5   54.69   15.50
   7   5   5   77.69   24.00
   7   5   5   10.50   23.00
   7   5   5   41.70   15.20
  -8  -5  -5  596.44  215.28
  -8  -5  -5  379.86   56.79
  -8  -5  -5  549.95   50.29
  -8  -5  -5  512.45   57.89
  -8  -5  -5  639.34   49.90
   8   5   5  517.45   55.89
   8   5   5  524.15   48.60
   8   5   5  659.13  282.17
   2  -6  -5   96.79   30.20
   2  -6  -5   77.79   22.30
  -2   6   5  119.99   23.90
  -2   6   5   80.79   20.20
  -2   6   5  108.49   32.10
  -2   6   5   50.59   41.80
  -2   6   5   57.79   60.19
   1  -6  -5  151.58   27.40
  -1   6   5   33.80   37.90
  -1   6   5  205.68   29.60
  -1   6   5  133.89   57.09
  -1   6   5  124.99   25.70
  -1   6   5  148.89   35.60
   0  -6  -5    0.80    6.90
   0  -6  -5   -1.10    9.80
   0   6   5    7.20   12.10
   0   6   5   12.50   21.10
   0   6   5    4.80   35.00
   0   6   5   11.80    9.60
  -1  -6  -5   48.90   34.50
  -1  -6  -5   88.59   23.60
  -1  -6  -5   87.09   19.70
   1   6   5   74.29   16.20
   1   6   5   81.69   23.80
   1   6   5   82.89   17.60
   1   6   5   44.00   39.90
  -2  -6  -5  804.72   67.89
  -2  -6  -5  865.61   61.29
  -2  -6  -5  698.13  130.59
   2   6   5  793.22   61.79
   2   6   5  894.01   56.29
   2   6   5  786.12   54.09
   2   6   5  731.43  138.59
  -3  -6  -5   19.20   24.00
  -3  -6  -5   69.69   23.00
  -3  -6  -5  115.39   27.20
  -3  -6  -5   50.19   15.70
   3   6   5   43.00   33.30
   3   6   5   75.59   16.90
   3   6   5   55.29   16.10
   3   6   5   74.29   24.60
  -4  -6  -5  473.15   39.20
  -4  -6  -5  486.05   46.80
  -4  -6  -5  267.77   82.09
  -4  -6  -5  409.96   44.10
   4   6   5  406.66   38.10
   4   6   5  473.45   40.10
   4   6   5  511.95  132.09
  -5  -6  -5  385.66   40.40
  -5  -6  -5  356.36   34.40
  -5  -6  -5  197.38   74.19
  -5  -6  -5  392.96   42.20
   5   6   5  343.97   35.20
   5   6   5  356.66   33.90
   5   6   5  181.78   64.29
  -6  -6  -5  275.57   43.80
  -6  -6  -5  338.67   37.60
  -6  -6  -5  246.48   88.19
  -6  -6  -5  299.77   46.00
  -6  -6  -5  293.67   44.40
   6   6   5  331.17   34.00
   6   6   5  315.57   48.10
   6   6   5  310.47   35.60
   6   6   5  170.18   77.59
  -7  -6  -5   35.90   18.00
  -7  -6  -5   77.19   61.79
  -7  -6  -5  104.79   22.60
  -7  -6  -5   88.29   27.50
   7   6   5  104.99   22.00
   7   6   5  101.59   67.99
   7   6   5   74.19   20.00
  -8  -6  -5  287.27   50.99
  -8  -6  -5  466.85   47.60
  -8  -6  -5  435.16   61.59
  -8  -6  -5  484.85   45.40
  -8  -6  -5  510.15  134.89
   8   6   5  494.35   50.39
   8   6   5  425.76   43.00
   8   6   5  541.55   54.19
   8   6   5  634.84  173.18
   1  -7  -5  154.48   38.30
   1  -7  -5   95.29   25.00
   1  -7  -5  131.29   30.00
  -1   7   5   85.59   24.50
  -1   7   5   58.99   65.79
  -1   7   5  184.18   89.59
  -1   7   5  166.28   28.90
  -1   7   5   31.70   22.50
   0  -7  -5    4.20    9.40
   0  -7  -5   33.10   17.20
   0   7   5    7.00    7.20
   0   7   5    4.20   12.20
   0   7   5    2.50   21.90
   0   7   5    5.70    7.30
   0   7   5   24.20   36.90
  -1  -7  -5   52.49   16.90
  -1  -7  -5   34.00   20.90
   1   7   5   32.60   12.60
   1   7   5   20.20   13.40
   1   7   5   -3.40   13.50
  -2  -7  -5  177.98   38.40
  -2  -7  -5  301.57   97.99
  -2  -7  -5  213.18   36.20
   2   7   5  181.88   44.40
   2   7   5  208.58   24.40
   2   7   5  241.48   83.39
  -3  -7  -5   11.20   11.60
  -3  -7  -5   24.10   29.80
  -3  -7  -5   13.50   13.20
  -3  -7  -5   22.20   13.20
   3   7   5    8.90   11.20
   3   7   5   43.60   49.70
   3   7   5   38.30   13.90
   3   7   5   24.00   12.30
  -4  -7  -5  107.29   31.50
  -4  -7  -5  102.79   22.30
  -4  -7  -5  102.69   58.89
  -4  -7  -5  122.69   30.20
   4   7   5   95.09   20.40
   4   7   5   64.19   48.50
   4   7   5   79.99   22.60
  -5  -7  -5  258.67   42.80
  -5  -7  -5  171.18   33.60
  -5  -7  -5  326.77   53.59
  -5  -7  -5  178.38   37.70
  -5  -7  -5  153.08   65.89
   5   7   5  214.58   31.70
   5   7   5  240.38   92.79
   5   7   5  203.88   26.10
   5   7   5  263.17   29.40
  -6  -7  -5   69.79   23.90
  -6  -7  -5   77.19   20.90
  -6  -7  -5   71.49   24.90
  -6  -7  -5   50.79   51.09
  -6  -7  -5   36.50   19.00
   6   7   5   35.10   43.10
   6   7   5   71.39   17.70
   6   7   5   97.59   22.40
   6   7   5   53.79   16.60
  -7  -7  -5   39.20   20.80
  -7  -7  -5   64.39   21.10
  -7  -7  -5   86.09   21.50
  -7  -7  -5   70.39   26.80
  -7  -7  -5  169.98   92.29
   7   7   5   72.29   21.40
   7   7   5   50.89   17.20
   7   7   5   67.49   52.79
   7   7   5   50.79   17.30
  -1  -8  -5  105.59   30.80
  -1  -8  -5   86.59   31.10
   1   8   5  111.99   22.70
   1   8   5   92.49   20.70
   1   8   5  137.99   77.29
   1   8   5  105.99   88.89
   1   8   5   66.99   29.40
  -2  -8  -5  337.17   49.70
  -2  -8  -5  290.07   49.50
   2   8   5  318.07   32.70
   2   8   5  272.17   97.79
   2   8   5  354.76   33.70
   2   8   5  235.38   40.60
  -3  -8  -5  122.19   62.99
  -3  -8  -5   90.89   26.20
  -3  -8  -5  154.88   36.40
   3   8   5  153.58   26.00
   3   8   5   20.10   65.49
   3   8   5   83.59   19.20
   3   8   5  103.09   31.10
  -4  -8  -5    0.60   18.70
  -4  -8  -5   24.00   16.30
  -4  -8  -5   36.00   20.90
  -4  -8  -5   12.40   11.40
   4   8   5   17.50   11.60
   4   8   5   26.30   11.60
   4   8   5    8.40   15.60
   4   8   5   17.60   30.80
  -5  -8  -5  129.79   35.10
  -5  -8  -5  161.28   38.40
  -5  -8  -5  181.18   84.59
  -5  -8  -5  110.99   30.40
  -5  -8  -5  145.49   27.00
   5   8   5  178.18   80.89
   5   8   5  109.99   23.30
   5   8   5  169.88   27.50
  -6  -8  -5   17.30   16.30
  -6  -8  -5   51.39   51.49
  -6  -8  -5   59.59   17.30
  -6  -8  -5   27.20   18.80
  -6  -8  -5   38.00   21.80
   6   8   5   47.90   43.00
   6   8   5   49.30   17.30
   6   8   5   29.20   13.90
   6   8   5   34.00   15.50
  -5  -5   6  419.86   42.10
  -5  -5   6  426.16   40.80
  -4  -5   6  151.98   26.40
  -3  -5   6 1133.49   67.89
  -3  -5   6 1028.60   66.99
  -2  -5   6 1128.09   71.89
  -1  -5   6    0.50    6.40
   0  -5   6  764.52   60.49
   0  -5   6  789.42   51.59
  -1   5  -6  603.34   65.09
   1  -5   6  633.64   43.30
   1  -5   6  593.44   53.69
   1  -5   6  534.25   39.20
  -6  -4   6  795.72   49.50
  -6  -4   6  797.82   62.29
  -6  -4   6  707.93   49.10
  -5  -4   6   58.79   17.30
  -5  -4   6   52.59   11.20
  -5  -4   6   62.39   16.30
  -4  -4   6 1359.66   83.39
  -3  -4   6 1486.45   84.99
  -3  -4   6 1480.45   81.29
  -2  -4   6  128.49   20.90
  -2  -4   6   96.79   17.00
  -1  -4   6  910.11   60.29
   0  -4   6 1961.30  110.19
   0  -4   6 1971.30   93.79
   0  -4   6 1837.22   91.89
  -1   4  -6  718.93   69.39
  -1   4  -6  823.62   75.09
   1  -4   6  619.04   42.00
   1  -4   6  680.73   44.70
   1  -4   6  777.82   58.29
  -2   4  -6  128.39   57.99
  -2   4  -6  224.58   57.29
   2  -4   6  155.38   32.50
   2  -4   6  206.98   23.10
   2  -4   6  124.39   20.90
  -6  -3   6   14.10   20.90
  -6  -3   6    3.70   11.50
  -6  -3   6    4.50    8.40
  -6  -3   6    8.30    7.70
  -5  -3   6  874.61   73.79
  -5  -3   6 1044.60   93.29
  -5  -3   6  875.11   64.69
  -5  -3   6  914.31   53.69
  -4  -3   6 1876.91  105.29
  -4  -3   6 1798.22   89.09
  -3  -3   6  673.83   41.10
  -3  -3   6  690.63   48.90
  -2  -3   6  717.53   47.60
  -2  -3   6  744.13   45.90
  -1  -3   6 2594.14  131.09
   0  -3   6 1061.49   66.79
  -1   3  -6   14.80   13.00
   1  -3   6    0.20    2.90
   1  -3   6   -3.30    3.60
   1  -3   6   -2.70    3.90
  -2   3  -6 1950.40  146.09
   2  -3   6 1723.93  105.39
   2  -3   6 1848.42  106.99
   2  -3   6 1581.34   89.49
  -3   3  -6 1652.33  150.58
  -3   3  -6 1470.45   83.19
   3  -3   6 1238.68  152.38
   3  -3   6 1690.53  102.89
   3  -3   6 1422.96   83.99
   3  -3   6 1552.64   89.29
  -4   3  -6   30.10   10.80
  -4   3  -6   19.60   13.80
  -4   3  -6   57.29   41.00
   4  -3   6   49.80   16.00
   4  -3   6   60.69   18.50
   4  -3   6   41.30   17.50
   4  -3   6   33.00   37.30
   6   2  -6  186.78   17.30
   6   2  -6  182.88   20.60
  -6  -2   6  191.58   31.50
  -6  -2   6  181.98   68.19
  -6  -2   6  194.88   22.50
  -6  -2   6  171.08   31.00
  -5  -2   6 1305.17   91.59
  -5  -2   6 1173.98  102.99
  -5  -2   6 1198.78  121.79
  -5  -2   6 1303.97   77.89
  -4  -2   6  588.94   36.30
  -4  -2   6  580.94   59.49
  -4  -2   6  541.95   37.40
  -4  -2   6  605.74   68.69
  -3  -2   6   40.40    7.40
  -3  -2   6   33.60    7.60
  -2  -2   6 2092.59  101.29
  -1  -2   6 2388.16  117.79
   0  -2   6   62.29   13.70
  -1   2  -6 1242.88   91.09
   1  -2   6 1191.98   61.29
   1  -2   6 1181.68   62.79
   1  -2   6 1085.09   96.69
   1  -2   6 1237.98   73.79
  -2   2  -6 2087.49  154.18
   2  -2   6 2257.87  121.99
   2  -2   6 2136.79  110.39
   2  -2   6 2202.28  108.09
  -3   2  -6  281.97   27.10
  -3   2  -6  331.57   24.70
  -3   2  -6  369.36   81.19
   3  -2   6  330.47   30.40
   3  -2   6  319.97   35.60
   3  -2   6  330.57   28.40
   3  -2   6  285.27   79.69
  -4   2  -6  219.88   21.60
  -4   2  -6  174.58   29.80
  -4   2  -6  230.68   70.79
   4  -2   6  209.98   33.20
   4  -2   6  196.98   29.10
   4  -2   6  240.08   40.40
   4  -2   6  122.59   57.99
  -5   2  -6 1173.28  144.19
  -5   2  -6 1010.80   82.59
   5  -2   6  858.31   67.49
   5  -2   6  615.34  154.48
   5  -2   6 1100.79   81.49
   5  -2   6  810.02   72.29
   6   1  -6  479.95   40.00
   6   1  -6  418.86   33.00
  -6  -1   6  386.66   98.09
  -6  -1   6  432.46   40.70
  -6  -1   6  444.36   38.10
  -6  -1   6  328.37   92.69
  -6  -1   6  451.75   44.90
   5   1  -6 1007.20   55.99
   5   1  -6 1046.00   61.29
  -5  -1   6 1105.39   75.19
  -5  -1   6  916.81   62.99
  -5  -1   6  881.51   95.79
  -5  -1   6  877.91  116.19
   4   1  -6  175.98   17.30
  -4  -1   6  165.28   17.70
  -4  -1   6  155.28   50.49
  -4  -1   6  161.78   19.00
  -3  -1   6  990.10   53.79
  -3  -1   6 1018.50   81.39
  -3  -1   6 1016.90   95.79
  -3  -1   6 1000.00   56.39
  -2  -1   6 1567.84   98.39
  -2  -1   6 1391.66   69.99
  -2  -1   6 1463.85  101.39
  -2  -1   6 1432.66   72.59
  -1  -1   6  401.36   26.20
   0  -1   6  177.88   14.90
   0  -1   6  244.58   17.20
   0  -1   6  236.68   20.20
  -1   1  -6 2282.67  143.89
   1  -1   6 2295.87  108.19
   1  -1   6 2268.37  116.99
   1  -1   6 2190.38  108.89
   1  -1   6 2380.86  153.08
  -2   1  -6  883.11   56.49
  -2   1  -6  715.03   78.59
  -2   1  -6  798.22   44.20
  -2   1  -6  813.32   46.50
   2  -1   6  879.21   56.89
   2  -1   6  786.12   46.90
   2  -1   6  789.42   48.80
   2  -1   6  724.83   97.09
  -3   1  -6   27.80    8.40
  -3   1  -6   41.20   29.00
   3  -1   6   18.40    8.60
   3  -1   6   23.40   13.30
   3  -1   6   33.80   11.60
  -4   1  -6 1504.55  100.59
  -4   1  -6 1314.27   95.09
  -4   1  -6 1460.65  147.09
   4  -1   6 1573.44   89.29
   4  -1   6 1509.55   83.99
   4  -1   6 1393.56   93.49
   4  -1   6 1289.67  160.38
  -5   1  -6 1202.08  143.09
  -5   1  -6 1044.20   77.89
  -5   1  -6 1141.69   68.59
  -5   1  -6 1129.29   82.89
   5  -1   6  727.63  157.48
   5  -1   6 1266.87   88.09
   5  -1   6 1246.28   79.69
   5  -1   6 1033.10   88.79
   6   0  -6  129.89   26.30
   6   0  -6  148.59   25.10
  -6   0   6  235.88   26.60
  -6   0   6   98.99   56.29
  -6   0   6  102.69   25.10
  -6   0   6  211.78   76.79
   5   0  -6  209.88   21.70
  -5   0   6  261.67   26.80
  -5   0   6  184.18   57.09
  -5   0   6  195.18   30.30
  -5   0   6  245.18   78.99
   4   0  -6   99.19   19.50
  -4   0   6   87.79   46.30
  -4   0   6  107.89   17.90
  -4   0   6   88.09   19.60
  -4   0   6   36.70   24.20
   3   0  -6  929.21   54.09
  -3   0   6  894.41   55.99
  -3   0   6  902.91   52.79
  -3   0   6  918.11   87.19
   2   0  -6  563.94   34.40
   2   0  -6  535.35   32.20
  -2   0   6  582.54   35.20
  -2   0   6  555.94   60.29
  -2   0   6  614.94   75.89
  -2   0   6  573.94   37.30
  -1   0   6   67.09   11.50
  -1   0   6   73.69   13.80
   0   0  -6 3134.39  143.69
   0   0  -6 3233.08  181.08
   0   0   6 3020.90  143.29
   0   0   6 3186.78  185.88
   0   0   6 3068.09  143.99
   0   0   6 2896.61  142.69
  -1   0  -6 1786.72   91.69
  -1   0  -6 1953.00  157.08
  -1   0  -6 1774.32   85.29
  -1   0  -6 1854.71   87.89
   1   0   6 1714.93   87.79
   1   0   6 1643.14   88.79
   1   0   6 1770.02   91.69
   1   0   6 1799.02   91.69
   1   0   6 1691.23  144.29
  -2   0  -6   21.90   17.70
  -2   0  -6   44.70   10.50
  -2   0  -6   21.30    6.90
  -2   0  -6   38.20   11.50
   2   0   6   18.90    8.20
   2   0   6   24.10    7.70
   2   0   6   43.50   29.40
   2   0   6   34.80   11.00
  -3   0  -6  462.25   39.20
  -3   0  -6  561.54   98.59
  -3   0  -6  488.85   38.80
   3   0   6  429.46   38.80
   3   0   6  457.05   34.10
   3   0   6  526.65  103.59
   3   0   6  487.05   36.70
  -4   0  -6 1503.65  148.29
  -4   0  -6 1640.54   86.69
   4   0   6 1684.33  100.89
   4   0   6 1693.03   90.69
   4   0   6 1626.44   93.69
   4   0   6 1375.26  177.98
  -5   0  -6  239.58   24.70
  -5   0  -6  268.67   39.20
  -5   0  -6  254.57   43.70
   5   0   6  144.29   71.29
   5   0   6  246.28   39.70
   5   0   6  253.27   38.70
   5   0   6  242.08   36.40
  -6   0  -6  162.88   33.10
  -6   0  -6  185.68   39.50
  -6   0  -6  299.77  100.99
  -6   0  -6  240.98   26.50
   6   0   6  243.88  104.79
   6   0   6  212.48   36.70
   6   0   6  198.78   39.30
   6   0   6  180.98   31.60
   6  -1  -6  111.79   26.20
   6  -1  -6  154.48   33.50
  -6   1   6  125.69   23.80
  -6   1   6  105.59   26.70
  -6   1   6  122.89   53.79
   5  -1  -6   62.59   15.10
   5  -1  -6   71.49   18.90
  -5   1   6  140.99   53.19
  -5   1   6  104.49   26.20
  -5   1   6   38.50   34.20
  -5   1   6  109.59   20.00
   4  -1  -6  158.78   28.00
  -4   1   6   95.89   43.10
  -4   1   6  158.98   23.40
  -4   1   6  184.08   30.80
  -4   1   6  215.88   82.19
   3  -1  -6  370.96   33.80
  -3   1   6  369.16   33.10
  -3   1   6  321.87   64.59
  -3   1   6  423.16   31.60
  -3   1   6  346.27   93.59
   2  -1  -6   45.80   10.20
  -2   1   6    6.00   15.20
  -2   1   6   44.90   12.80
  -2   1   6   61.99   27.30
  -2   1   6   74.79   13.60
   1  -1  -6  330.37   23.70
  -1   1   6  441.26   81.79
  -1   1   6  325.27   24.70
  -1   1   6  282.07   25.80
   0  -1  -6  766.92   79.09
   0  -1  -6  743.83   44.30
   0  -1  -6  754.82   40.00
   0  -1  -6  743.43   45.60
   0   1   6  683.33   76.89
   0   1   6  719.93   46.20
   0   1   6  702.23   43.80
   0   1   6  777.72   42.10
  -1  -1  -6  274.17   23.00
  -1  -1  -6  307.57   64.69
  -1  -1  -6  303.07   24.00
  -1  -1  -6  342.67   27.20
   1   1   6  389.76   77.49
   1   1   6  344.07   26.10
   1   1   6  324.37   25.60
   1   1   6  321.67   27.40
   1   1   6  329.27   25.70
  -2  -1  -6  346.17   69.99
  -2  -1  -6  357.36   28.20
  -2  -1  -6  369.66   29.80
   2   1   6  391.26   31.10
   2   1   6  373.06   31.30
   2   1   6  397.66   29.50
   2   1   6  374.46   80.09
   2   1   6  357.46   28.20
  -3  -1  -6 2242.28  116.19
  -3  -1  -6 2174.68  170.38
  -3  -1  -6 2194.38  111.09
  -3  -1  -6 2339.77  119.69
   3   1   6 2360.46  118.29
   3   1   6 2037.00  111.79
   3   1   6 2140.09  185.48
   3   1   6 2288.77  120.89
   3   1   6 2270.77  113.49
  -4  -1  -6  725.93   55.99
  -4  -1  -6  773.92   55.19
  -4  -1  -6  752.92   45.00
  -4  -1  -6  736.13   48.40
  -4  -1  -6  821.12  102.59
   4   1   6  811.82   52.09
   4   1   6  656.13  131.49
   4   1   6  780.82   54.49
   4   1   6  802.82   58.89
  -5  -1  -6   21.30   11.70
  -5  -1  -6    2.50    5.70
  -5  -1  -6   25.30   20.90
   5   1   6   -0.20    6.20
   5   1   6   15.80    9.80
   5   1   6   13.80   10.50
   5   1   6   -2.40    7.90
  -6  -1  -6  600.74   56.49
  -6  -1  -6  752.42   51.99
  -6  -1  -6  661.33   59.79
   6   1   6  670.53   57.09
   6   1   6  773.22   65.49
   6   1   6  687.93   53.19
  -7  -1  -6  404.16   58.49
  -7  -1  -6  518.35   45.50
  -7  -1  -6  584.34   58.39
  -7  -1  -6  624.64  145.49
   7   1   6  420.86  142.39
   7   1   6  691.43   65.59
   7   1   6  542.25   49.80
   7   1   6  617.74   56.79
   5  -2  -6   17.30   10.40
   5  -2  -6   31.70   17.30
  -5   2   6    3.50    7.20
  -5   2   6   20.70   14.20
  -5   2   6   -0.90   16.30
  -5   2   6   10.70   24.10
   4  -2  -6   23.60   14.20
   4  -2  -6   20.20   10.80
  -4   2   6   -9.40   11.90
  -4   2   6   28.30   13.60
  -4   2   6   23.70   10.50
   3  -2  -6  297.27   26.10
   3  -2  -6  268.17   31.30
  -3   2   6  416.96  116.99
  -3   2   6  233.28   61.49
  -3   2   6  316.87   32.10
   2  -2  -6  120.69   19.40
   2  -2  -6   85.29   18.90
  -2   2   6   98.39   21.10
  -2   2   6   65.49   43.80
  -2   2   6   76.99   35.00
  -2   2   6  137.89   20.90
   1  -2  -6  565.04   43.30
   1  -2  -6  538.45   35.90
  -1   2   6  574.44   37.80
  -1   2   6  582.44   42.80
  -1   2   6  421.66   76.89
   0  -2  -6  212.88   20.20
   0  -2  -6  255.27   25.20
   0  -2  -6  300.07   72.69
   0  -2  -6  240.18   17.10
   0   2   6  272.87   68.59
   0   2   6  189.68   19.80
   0   2   6  222.08   23.70
  -1  -2  -6  133.39   22.00
  -1  -2  -6  165.98   25.10
  -1  -2  -6  222.98   64.69
  -1  -2  -6  124.99   13.70
   1   2   6  146.79   23.70
   1   2   6  141.39   22.30
   1   2   6  156.68   49.60
   1   2   6  150.18   17.80
  -2  -2  -6  143.89   50.39
  -2  -2  -6  187.18   20.70
  -2  -2  -6  174.28   18.60
  -2  -2  -6  200.08   21.00
   2   2   6  195.38   21.10
   2   2   6  212.98   22.20
   2   2   6  200.38   20.50
   2   2   6  186.98   53.89
   2   2   6  187.68   20.50
  -3  -2  -6  512.65   90.79
  -3  -2  -6  577.34   42.20
  -3  -2  -6  582.04   40.50
  -3  -2  -6  528.65   38.90
  -3  -2  -6  614.54   43.90
   3   2   6  612.54   41.70
   3   2   6  557.84   44.70
   3   2   6  627.34   40.00
   3   2   6  640.24   46.10
   3   2   6  621.04  121.29
  -4  -2  -6   22.00   21.40
  -4  -2  -6   55.49   11.70
  -4  -2  -6   34.00   12.50
  -4  -2  -6   39.20   11.70
  -4  -2  -6   46.50   14.60
   4   2   6   57.39   36.00
   4   2   6   27.70   10.40
   4   2   6   48.70   11.70
   4   2   6   40.90   13.50
   4   2   6   40.50   15.10
  -5  -2  -6  203.48   20.10
  -5  -2  -6  234.38   81.59
  -5  -2  -6  125.19   25.00
  -5  -2  -6  160.08   25.50
   5   2   6  203.78   80.29
   5   2   6  217.48   38.40
   5   2   6  178.78   19.40
   5   2   6  171.58   25.50
   5   2   6  187.68   31.80
  -6  -2  -6  646.24  144.79
  -6  -2  -6  450.35   45.50
  -6  -2  -6  412.86   44.60
  -6  -2  -6  459.45   34.80
   6   2   6  404.46   42.90
   6   2   6  507.35  142.99
   6   2   6  438.56   35.50
   6   2   6  419.06   46.90
   6   2   6  418.76   39.00
  -7  -2  -6  132.79   34.40
  -7  -2  -6  240.88  132.39
  -7  -2  -6   73.29   26.90
  -7  -2  -6  195.18   22.40
  -7  -2  -6  180.18   28.30
   7   2   6  158.68   37.10
   7   2   6   41.00   39.90
   7   2   6  209.18   39.50
   7   2   6  139.29   27.50
   4  -3  -6  154.28   27.40
   4  -3  -6  139.09   31.80
  -4   3   6  120.79   69.79
  -4   3   6  129.99   61.69
  -4   3   6  133.09   24.90
   3  -3  -6  669.83   41.20
   3  -3  -6  686.63   58.09
   3  -3  -6  614.04   45.70
  -3   3   6  651.13   47.90
  -3   3   6  726.53  167.58
  -3   3   6  567.44   51.69
  -3   3   6  795.62  137.79
   2  -3  -6  224.88   36.20
   2  -3  -6  229.88   23.30
  -2   3   6  256.07   24.90
  -2   3   6  256.77   39.90
  -2   3   6  460.95  129.19
  -2   3   6  158.58   47.50
   1  -3  -6   57.49   13.00
   1  -3  -6   81.19   19.90
  -1   3   6   98.49   42.90
  -1   3   6   93.29   17.90
  -1   3   6   70.09   18.60
   0  -3  -6  557.54   39.30
   0  -3  -6  612.44   37.00
   0  -3  -6  585.34   46.80
   0  -3  -6  584.04  112.39
   0   3   6  529.05   43.30
   0   3   6  568.04   45.50
   0   3   6  509.95   96.29
  -1  -3  -6  410.66   32.50
  -1  -3  -6  417.26   95.59
  -1  -3  -6  439.16   30.30
  -1  -3  -6  366.56   35.50
   1   3   6  410.56   32.90
   1   3   6  384.96   34.30
   1   3   6  361.56   32.30
   1   3   6  357.56   78.49
  -2  -3  -6  186.78   28.30
  -2  -3  -6  140.19   50.69
  -2  -3  -6  198.58   20.30
  -2  -3  -6  220.48   24.90
   2   3   6  183.38   20.90
   2   3   6  201.48   22.60
   2   3   6  185.48   30.00
   2   3   6  240.58   69.39
  -3  -3  -6  308.77   27.50
  -3  -3  -6  341.37   29.80
  -3  -3  -6  369.76   33.00
  -3  -3  -6  402.96   93.59
  -3  -3  -6  327.57   29.90
   3   3   6  303.17   27.20
   3   3   6  289.57   28.20
   3   3   6  337.07   31.80
   3   3   6  329.67   86.19
  -4  -3  -6  152.38   26.30
  -4  -3  -6  130.39   20.10
  -4  -3  -6   98.09   19.50
  -4  -3  -6  147.89   51.09
  -4  -3  -6  145.19   24.20
   4   3   6  106.29   23.00
   4   3   6   89.59   41.40
   4   3   6  118.99   20.60
   4   3   6  131.69   22.40
   4   3   6  149.49   26.20
  -5  -3  -6   41.50   35.80
  -5  -3  -6   16.60    8.30
  -5  -3  -6   10.50    8.20
  -5  -3  -6    4.60    8.10
   5   3   6    4.80    5.80
   5   3   6    6.70    7.30
   5   3   6    3.00    7.20
   5   3   6   11.70   19.90
   5   3   6   -1.30    5.10
  -6  -3  -6  225.58   70.19
  -6  -3  -6  263.67   27.90
  -6  -3  -6  266.77   25.60
  -6  -3  -6  162.78   32.00
   6   3   6  233.28   37.80
   6   3   6  113.09   53.49
   6   3   6  202.98   32.80
   6   3   6  205.98   24.00
   6   3   6  259.27   42.00
  -7  -3  -6   24.70   10.30
  -7  -3  -6   31.60   39.70
  -7  -3  -6   52.59   15.20
  -7  -3  -6   18.10   13.80
  -7  -3  -6    7.50    9.40
   7   3   6   -6.20   18.40
   7   3   6   42.00   15.70
   7   3   6   35.10   13.70
   7   3   6   25.90   18.00
   7   3   6   17.50   14.80
   4  -4  -6  581.24   60.49
   4  -4  -6  485.45   51.69
   4  -4  -6  563.34   43.40
  -4   4   6  626.34  115.19
  -4   4   6  394.86  110.79
  -4   4   6  529.05   46.90
  -4   4   6  602.64  171.78
   3  -4  -6  736.83   49.20
   3  -4  -6  636.34   60.79
  -3   4   6  545.85   55.39
  -3   4   6  619.24   49.30
  -3   4   6  560.94  154.78
  -3   4   6  644.34  157.98
   2  -4  -6   11.50    8.70
   2  -4  -6   12.40   12.60
   2  -4  -6   13.80    9.30
  -2   4   6    1.50   11.00
  -2   4   6   18.70   10.00
  -2   4   6    3.80   16.90
  -2   4   6    2.70    9.10
   1  -4  -6  526.15   50.59
   1  -4  -6  508.05   40.80
  -1   4   6  593.04   51.59
  -1   4   6  618.04   43.40
  -1   4   6  558.84   46.50
  -1   4   6  593.54  140.19
   0  -4  -6 1363.86  145.49
   0  -4  -6 1384.66   78.99
   0  -4  -6 1339.77   90.29
   0   4   6 1504.05   80.39
   0   4   6 1321.27  141.49
   0   4   6 1408.56   89.29
   0   4   6 1359.56   83.59
  -1  -4  -6  444.16   35.80
  -1  -4  -6  274.27   73.89
  -1  -4  -6  410.66   40.60
   1   4   6  493.75   41.50
   1   4   6  450.65   35.30
   1   4   6  442.36  103.99
   1   4   6  384.26   34.80
  -2  -4  -6  342.87   35.10
  -2  -4  -6  302.67   27.20
  -2  -4  -6  309.77   30.30
  -2  -4  -6  163.28   53.39
   2   4   6  249.48   28.40
   2   4   6  265.57   26.70
   2   4   6  274.97   77.99
  -3  -4  -6 1051.39   64.79
  -3  -4  -6 1034.50   69.79
  -3  -4  -6 1130.89   67.49
  -3  -4  -6 1172.88   72.79
  -3  -4  -6 1098.19  132.29
   3   4   6  949.90   65.79
   3   4   6  883.61   73.89
   3   4   6 1120.99   65.59
   3   4   6  991.60  128.19
  -4  -4  -6  417.66  104.89
  -4  -4  -6  378.96   37.10
  -4  -4  -6  348.57   30.70
  -4  -4  -6  361.96   34.20
  -4  -4  -6  377.96   34.90
   4   4   6  373.76   33.80
   4   4   6  352.96   31.30
   4   4   6  380.86   36.70
   4   4   6  189.98   62.39
  -5  -4  -6   92.99   18.60
  -5  -4  -6  104.69   24.00
  -5  -4  -6  103.59   53.49
  -5  -4  -6   92.69   20.50
   5   4   6  118.89   25.40
   5   4   6   84.49   19.00
   5   4   6   88.79   18.40
   5   4   6   56.19   45.70
  -6  -4  -6  207.18   38.00
  -6  -4  -6  333.37  107.89
  -6  -4  -6  268.07   27.50
  -6  -4  -6  244.88   28.60
   6   4   6  275.17   29.70
   6   4   6  239.38   27.20
   6   4   6  255.77   39.50
   6   4   6  210.58   86.99
  -7  -4  -6   18.00   13.20
  -7  -4  -6   47.20   19.90
  -7  -4  -6   93.19   19.20
  -7  -4  -6   83.79   19.80
  -7  -4  -6   28.30   33.10
   7   4   6   32.70   35.10
   7   4   6   55.79   20.40
   7   4   6   56.19   17.20
  -8  -4  -6   19.20   17.10
  -8  -4  -6   15.00   30.80
  -8  -4  -6   11.10   10.60
  -8  -4  -6    1.60   13.80
  -8  -4  -6   21.80   12.00
   8   4   6   10.20   13.10
   8   4   6    6.90   10.90
   3  -5  -6  381.06   37.70
   3  -5  -6  264.47   47.40
   3  -5  -6  297.27   45.40
  -3   5   6  391.66   37.00
  -3   5   6  237.28   39.70
  -3   5   6  289.57  100.89
  -3   5   6  230.38   45.10
   2  -5  -6   37.90   19.30
   2  -5  -6   53.49   16.20
   2  -5  -6   27.80   13.10
  -2   5   6   53.19   55.19
  -2   5   6   73.49   25.40
  -2   5   6   48.70   16.90
  -2   5   6   74.79   17.70
  -2   5   6   33.70   34.30
   1  -5  -6 1467.95   90.29
   1  -5  -6 1462.75  105.89
  -1   5   6 1666.53  183.78
  -1   5   6 1587.44  105.09
  -1   5   6 1698.13   92.09
  -1   5   6 1669.93  268.87
   0  -5  -6  955.40   76.29
   0  -5  -6 1027.90   65.69
   0   5   6 1079.89   66.19
   0   5   6 1063.89  133.69
   0   5   6  979.30   67.09
   0   5   6 1124.99   78.19
  -1  -5  -6  133.89   29.20
  -1  -5  -6   64.29   44.00
  -1  -5  -6  108.19   21.40
   1   5   6  143.79   24.10
   1   5   6  102.29   57.39
   1   5   6  117.69   23.60
   1   5   6  179.98   32.00
  -2  -5  -6  717.63   58.79
  -2  -5  -6  754.02  146.89
  -2  -5  -6  627.04   49.60
   2   5   6  781.72  134.99
   2   5   6  613.94   51.89
  -3  -5  -6 1328.77   78.19
  -3  -5  -6 1289.47   86.79
  -3  -5  -6 1199.18   77.09
  -3  -5  -6 1245.98   82.29
  -3  -5  -6 1133.29  144.49
   3   5   6 1380.16  108.09
   3   5   6 1209.98   79.09
   3   5   6 1366.36  158.08
  -4  -5  -6   40.90   13.60
  -4  -5  -6   44.30   16.10
  -4  -5  -6   32.30   14.10
  -4  -5  -6   29.70   33.20
  -4  -5  -6   52.09   17.50
   4   5   6   27.30   33.80
   4   5   6   69.89   23.40
   4   5   6   31.30   12.70
  -5  -5  -6  676.03   58.69
  -5  -5  -6  647.44  137.89
  -5  -5  -6  701.43   57.89
  -5  -5  -6  689.53   54.59
  -5  -5  -6  664.63   49.99
   5   5   6  677.33   55.59
   5   5   6  673.23   61.89
   5   5   6  615.54  150.98
   5   5   6  701.23   50.89
  -6  -5  -6 1050.79  199.88
  -6  -5  -6  849.32   57.59
  -6  -5  -6  784.42   60.19
   6   5   6  841.52   58.99
   6   5   6  713.43   55.39
   6   5   6  782.72   63.29
   6   5   6  430.96  111.69
  -7  -5  -6  105.59   28.60
  -7  -5  -6  133.19   24.60
  -7  -5  -6   85.79   55.29
  -7  -5  -6  101.99   28.80
  -7  -5  -6  136.89   28.80
   7   5   6   99.69   23.30
   7   5   6  137.89   26.30
   7   5   6  227.88   39.50
   7   5   6   52.69   52.79
  -8  -5  -6  128.39   37.60
  -8  -5  -6  217.58   57.39
  -8  -5  -6  172.48   30.80
  -8  -5  -6  256.17   98.99
  -8  -5  -6  197.98   32.00
   8   5   6   88.49   54.59
   8   5   6  135.69   33.10
   8   5   6  227.98   42.20
   8   5   6  202.58   36.20
   2  -6  -6  748.23   61.09
   2  -6  -6  832.12   76.79
   2  -6  -6  651.33   56.99
  -2   6   6  859.31   60.49
  -2   6   6  667.33   69.39
  -2   6   6  620.44  168.88
  -2   6   6  780.32   60.09
  -2   6   6  699.93  142.89
   1  -6  -6 1406.76   89.19
  -1   6   6 1532.35   88.79
  -1   6   6 1368.06   89.99
  -1   6   6 1412.46  122.09
  -1   6   6 1709.93  293.87
  -1   6   6 1315.77  168.58
   0  -6  -6  166.78   37.10
   0  -6  -6  106.99   23.20
   0   6   6  125.69   31.40
   0   6   6  136.59   67.49
   0   6   6  143.69   24.20
  -1  -6  -6  532.25   46.00
  -1  -6  -6  497.05  112.99
  -1  -6  -6  462.85   51.79
   1   6   6  655.73   46.10
   1   6   6  580.14   53.09
   1   6   6  443.36  103.29
  -2  -6  -6 2722.53  138.79
  -2  -6  -6 2333.07  145.39
  -2  -6  -6 2303.57  220.08
   2   6   6 2516.65  239.98
   2   6   6 2300.57  142.49
   2   6   6 2461.85  140.39
  -3  -6  -6  667.13   56.69
  -3  -6  -6  671.03   61.99
  -3  -6  -6  759.62   55.49
  -3  -6  -6  917.31  179.18
   3   6   6  595.54   52.59
   3   6   6  919.81  180.98
   3   6   6  710.03   53.69
  -4  -6  -6  448.16  128.29
  -4  -6  -6  506.35   42.00
  -4  -6  -6  323.27   45.40
  -4  -6  -6  485.45   49.10
  -4  -6  -6  567.64   50.99
   4   6   6  450.75   42.00
   4   6   6  528.35   49.00
   4   6   6  491.65  132.59
  -5  -6  -6 1119.19   71.29
  -5  -6  -6  694.03  139.09
  -5  -6  -6 1105.99   76.79
  -5  -6  -6 1111.69   79.99
  -5  -6  -6 1121.29   79.19
   5   6   6 1091.99  189.98
   5   6   6 1025.50   70.49
   5   6   6  925.91   78.69
  -6  -6  -6  563.04   57.79
  -6  -6  -6  475.55   49.10
  -6  -6  -6  381.26  101.59
  -6  -6  -6  595.14   52.89
  -6  -6  -6  558.34   48.00
   6   6   6  555.94   50.99
   6   6   6  574.04   58.69
   6   6   6  521.65   45.80
   6   6   6  548.55  148.29
  -7  -6  -6   75.19   25.70
  -7  -6  -6   90.09   23.40
  -7  -6  -6   68.09   52.79
  -7  -6  -6   23.40   18.40
  -7  -6  -6  101.19   22.80
   7   6   6   53.69   27.30
   7   6   6   64.09   45.10
   7   6   6   78.79   20.90
   7   6   6   69.49   23.10
   0  -7  -6  328.57   37.80
   0   7   6  346.47   54.39
   0   7   6  319.37   34.60
   0   7   6  227.98   95.09
   0   7   6  242.48   88.49
   0   7   6  404.06   36.60
  -1  -7  -6 1517.45  115.39
  -1  -7  -6 1689.13  106.99
   1   7   6 1797.42  100.59
   1   7   6 1689.73  112.39
   1   7   6 1817.82  211.18
  -2  -7  -6  954.80   80.29
  -2  -7  -6  963.70   71.39
  -2  -7  -6 1057.99  184.18
   2   7   6  897.81  170.28
   2   7   6  992.10   92.99
   2   7   6  915.71   73.29
   2   7   6  929.21   69.09
  -3  -7  -6   34.10   16.00
  -3  -7  -6   12.40   11.70
  -3  -7  -6   12.10   23.00
   3   7   6   15.50   13.50
   3   7   6   66.19   16.90
   3   7   6   46.80   42.80
  -4  -7  -6 1618.04  105.99
  -4  -7  -6 1530.65  101.59
  -4  -7  -6 1294.47   95.69
  -4  -7  -6 1648.34  111.39
  -4  -7  -6 1464.05  185.68
   4   7   6 1652.03  201.08
   4   7   6 1422.16   90.39
   4   7   6 1610.04   93.99
  -5  -7  -6 1987.60  125.09
  -5  -7  -6 1659.43  113.39
  -5  -7  -6 1841.92  120.89
  -5  -7  -6 1946.41  110.49
   5   7   6 1827.02  109.89
   5   7   6 1594.54  208.08
   5   7   6 1959.20  111.79
   5   7   6 1780.92  107.59
  -6  -7  -6  118.39   33.40
  -6  -7  -6   73.49   26.00
  -6  -7  -6  104.99   23.20
  -6  -7  -6    3.20   18.80
   6   7   6   42.10   49.40
   6   7   6   87.79   34.50
   6   7   6   59.59   18.40
  -7  -7  -6  457.75   54.19
  -7  -7  -6  472.15  136.39
  -7  -7  -6  519.55   47.60
  -7  -7  -6  313.77   53.19
  -7  -7  -6  528.65   53.39
   7   7   6  480.95   48.00
   7   7   6  338.67  117.19
   7   7   6  529.05   50.29
   7   7   6  402.06   44.10
  -1  -8  -6 1477.15  110.29
  -1  -8  -6 1431.26   97.59
   1   8   6 1258.47  111.09
   1   8   6 1324.07   86.09
   1   8   6  947.11  195.88
   1   8   6 1519.65   88.69
  -2  -8  -6   17.20   14.40
  -2  -8  -6   15.50   30.40
  -2  -8  -6   49.10   24.70
   2   8   6   19.70   15.00
   2   8   6   15.00   29.20
   2   8   6   29.30   14.30
   2   8   6   35.60   16.60
  -3  -8  -6  712.53   72.79
  -3  -8  -6  950.30  190.48
  -3  -8  -6  802.52   76.09
   3   8   6  880.61   82.09
   3   8   6  806.22   60.79
   3   8   6  931.61   62.69
   3   8   6  921.11  203.08
  -4  -8  -6 1705.63  122.09
  -4  -8  -6 1729.83  204.98
  -4  -8  -6 1643.94  115.99
  -4  -8  -6 1449.15  112.39
  -4  -8  -6 1907.31  111.79
   4   8   6 1645.84  113.89
   4   8   6 1820.52  103.39
   4   8   6 1641.24  123.59
  -5  -8  -6  573.74   61.19
  -5  -8  -6  524.85   48.30
  -5  -8  -6  376.56   54.49
  -5  -8  -6  457.95   63.29
  -5  -8  -6  288.37   94.29
   5   8   6  530.55   46.10
   5   8   6  427.16   44.50
   5   8   6  453.45   43.90
   5   8   6  395.56  120.39
  -6  -8  -6  279.37  104.09
  -6  -8  -6  292.47   49.00
  -6  -8  -6  392.36   40.90
  -6  -8  -6  192.28   50.69
  -6  -8  -6  379.16   86.69
   6   8   6  374.46   39.00
   6   8   6  379.86   42.90
   6   8   6  331.57   38.40
   6   8   6  244.58  101.79
  -3  -5   7   15.80   10.00
  -3  -5   7    1.60    6.00
  -1  -5   7  519.95   46.00
  -5  -4   7  210.08   35.20
  -4  -4   7  106.39   16.80
  -3  -4   7  121.79   22.00
  -3  -4   7   74.59   15.80
  -2  -4   7  275.37   26.50
  -2  -4   7  304.57   28.70
  -1  -4   7  268.57   28.90
   0  -4   7   17.10   11.20
   1  -4   7  380.66   28.30
   1  -4   7  285.17   41.20
   1  -4   7  314.07   25.50
  -2   4  -7  336.57   66.39
  -2   4  -7  357.76   69.29
   2  -4   7  322.67   45.00
   2  -4   7  276.47   27.10
   2  -4   7  355.26   31.20
  -5  -3   7  116.19   18.40
  -5  -3   7  115.59   26.30
  -5  -3   7  138.39   15.80
  -4  -3   7   84.69   20.10
  -3  -3   7   15.50    9.70
  -3  -3   7    6.50    5.10
  -2  -3   7  232.28   22.30
  -2  -3   7  243.88   24.90
  -1  -3   7  106.09   16.70
  -1  -3   7  131.19   21.10
   0  -3   7   67.09   18.20
   1  -3   7  384.66   37.20
   1  -3   7  357.76   26.90
   1  -3   7  345.17   25.60
  -2   3  -7  130.69   42.50
   2  -3   7  150.18   22.70
   2  -3   7  127.39   19.80
   2  -3   7  125.79   28.60
  -3   3  -7    9.40   17.60
   3  -3   7   54.39   14.80
   3  -3   7   66.79   21.20
   3  -3   7   57.59   16.50
  -6  -2   7   52.79   14.70
  -6  -2   7   37.30   16.40
  -6  -2   7   52.59   16.60
  -6  -2   7   52.29   37.20
  -6  -2   7   10.20   15.90
  -5  -2   7  192.58   52.59
  -5  -2   7  250.47   53.49
  -5  -2   7  242.18   23.20
  -5  -2   7  309.97   35.30
  -5  -2   7  245.88   24.90
  -4  -2   7  118.29   13.30
  -4  -2   7  107.19   17.30
  -4  -2   7   95.59   28.00
  -4  -2   7   86.19   31.20
  -2  -2   7  319.67   23.80
   0  -2   7   36.60   11.70
  -1   2  -7  340.67   43.00
   1  -2   7  301.77   56.39
   1  -2   7  309.47   22.40
   1  -2   7  328.87   31.50
   1  -2   7  311.97   23.70
  -2   2  -7   96.49   34.10
   2  -2   7   75.29   35.90
   2  -2   7   92.39   17.20
   2  -2   7   88.39   15.80
   2  -2   7  130.59   26.90
  -3   2  -7    2.80   11.00
  -3   2  -7   -2.70    3.70
   3  -2   7   -0.70    5.00
   3  -2   7    7.10   17.70
   3  -2   7    7.40   10.10
  -4   2  -7  116.09   21.80
  -4   2  -7  144.09   21.00
  -4   2  -7  123.79   67.49
   4  -2   7  193.08   30.90
   4  -2   7  134.49   24.20
   4  -2   7  140.49   67.99
   4  -2   7  152.08   31.20
   6   1  -7  148.79   21.90
   6   1  -7  186.08   42.60
  -6  -1   7  235.08   26.50
  -6  -1   7  171.68   29.80
  -6  -1   7  200.98   61.19
   5   1  -7  437.96   41.30
   5   1  -7  410.96   29.50
  -5  -1   7  429.76   38.30
  -5  -1   7  586.24  114.39
  -5  -1   7  513.45   37.50
  -5  -1   7  426.46   76.59
  -4  -1   7  241.28   21.70
  -4  -1   7  193.78   21.80
  -4  -1   7  251.77   64.79
  -4  -1   7  182.28   44.70
  -3  -1   7  326.27   56.99
  -3  -1   7  389.36   69.59
  -3  -1   7  354.76   24.90
  -3  -1   7  290.77   25.10
  -2  -1   7  698.73   40.50
  -2  -1   7  636.04   37.00
  -1  -1   7  193.58   16.80
   0  -1   7   16.80    7.00
   0  -1   7   16.80    5.70
   0  -1   7   28.80    7.60
  -1   1  -7  672.53   66.89
   1  -1   7  662.63   69.39
   1  -1   7  658.23   40.10
   1  -1   7  606.64   37.90
   1  -1   7  654.43   45.50
  -2   1  -7  110.59   36.70
  -2   1  -7  143.29   13.70
   2  -1   7  149.79   15.90
   2  -1   7  122.29   20.10
   2  -1   7  192.68   30.20
  -3   1  -7   73.59   13.20
  -3   1  -7   69.09   42.40
   3  -1   7   69.69   21.40
   3  -1   7   23.80   25.10
   3  -1   7   45.10   13.60
   3  -1   7   68.39   15.10
  -4   1  -7  147.89   72.49
  -4   1  -7  116.29   27.10
  -4   1  -7  173.68   24.00
  -4   1  -7  105.59   21.80
   4  -1   7  139.59   26.20
   4  -1   7  173.58   34.90
   4  -1   7  130.99   23.10
   4  -1   7   91.79   49.99
  -5   1  -7  255.57  124.69
  -5   1  -7   92.99   23.00
   5  -1   7  188.28   32.70
   5  -1   7  128.39   29.30
   5  -1   7  119.59   25.10
   5   0  -7  631.94   46.90
   5   0  -7  550.44   40.10
  -5   0   7  390.76  136.99
  -5   0   7  520.95   94.39
  -5   0   7  617.74   45.80
  -5   0   7  611.34   49.50
   4   0  -7   36.80   11.70
   4   0  -7   28.10    8.40
  -4   0   7   41.00   37.50
  -4   0   7   39.30   10.90
  -4   0   7   23.90   20.70
  -4   0   7   46.60   13.10
   3   0  -7  931.81   54.39
  -3   0   7  926.11   55.29
  -3   0   7  959.40   64.99
  -3   0   7 1027.90  113.89
  -2   0   7 1501.95  130.39
  -2   0   7 1458.35   75.39
  -2   0   7 1451.75   78.39
  -2   0   7 1325.67  119.99
  -1   0   7  230.78   48.60
  -1   0   7  207.88   19.50
  -1   0   7  180.28   16.80
   0   0  -7  669.73   65.59
   0   0   7  583.54   37.50
   0   0   7  758.82   72.89
   0   0   7  621.04   38.70
   0   0   7  651.33   39.50
  -1   0  -7 1559.34   75.49
  -1   0  -7 1687.13   84.39
  -1   0  -7 1587.34  123.19
   1   0   7 1520.45  122.69
   1   0   7 1500.85   79.79
   1   0   7 1554.64   83.99
   1   0   7 1522.85   81.39
   1   0   7 1497.25   83.89
  -2   0  -7  317.37   29.40
  -2   0  -7  337.57   25.70
  -2   0  -7  460.45   80.79
  -2   0  -7  363.46   26.20
   2   0   7  291.37   67.49
   2   0   7  333.27   28.40
   2   0   7  327.27   30.70
   2   0   7  354.66   27.80
  -3   0  -7  145.69   45.70
  -3   0  -7  152.88   33.10
  -3   0  -7  136.49   15.70
  -3   0  -7  153.68   28.10
   3   0   7  184.18   69.49
   3   0   7  114.79   20.10
   3   0   7  145.29   23.90
   3   0   7  178.98   30.70
  -4   0  -7  328.27   92.89
   4   0   7  322.07   30.70
   4   0   7  329.77   36.50
   4   0   7  372.56   34.50
  -5   0  -7   99.29   23.80
  -5   0  -7  126.19   61.89
  -5   0  -7   48.00   19.20
  -5   0  -7  119.99   21.60
   5   0   7  112.79   24.30
   5   0   7  132.69   30.00
   5   0   7  114.19   24.70
  -6   0  -7   13.90   15.10
  -6   0  -7    6.20   21.20
  -6   0  -7    3.90    9.50
  -6   0  -7   13.10    9.20
   6   0   7   21.80   13.40
   6   0   7   17.60   13.80
   6   0   7   -1.20   32.10
   6   0   7   19.00   14.10
   5  -1  -7  125.19   23.90
   5  -1  -7  182.18   32.60
  -5   1   7  107.89   41.00
  -5   1   7  152.98   66.79
  -5   1   7  178.78   30.10
  -5   1   7  153.48   30.20
   4  -1  -7  855.31   55.59
  -4   1   7  906.91  104.49
  -4   1   7  970.40  171.68
  -4   1   7  945.01   65.29
  -4   1   7  996.20   65.49
   3  -1  -7 2130.29  116.19
  -3   1   7 2167.98  201.68
  -3   1   7 2181.78  117.29
  -3   1   7 2168.58  112.19
   2  -1  -7 1383.56   72.69
   2  -1  -7 1427.16   77.09
  -2   1   7 1377.26  143.69
  -2   1   7 1332.07   78.29
  -2   1   7 1205.68  113.49
   1  -1  -7  206.98   20.00
   1  -1  -7  185.08   17.80
  -1   1   7  211.28   22.00
  -1   1   7  188.98   18.60
  -1   1   7  216.68   58.09
   0  -1  -7 2346.17  161.58
   0  -1  -7 2113.09  108.19
   0  -1  -7 2175.68  109.59
   0  -1  -7 2193.78  104.29
   0   1   7 2213.58  106.79
   0   1   7 2245.38  163.78
  -1  -1  -7 1780.62   89.89
  -1  -1  -7 1596.74   89.49
  -1  -1  -7 1812.02  141.89
  -1  -1  -7 1622.54   85.69
   1   1   7 1584.14   91.69
   1   1   7 1689.73   89.09
   1   1   7 1739.83  143.39
   1   1   7 1627.84   88.49
   1   1   7 1834.32   90.19
  -2  -1  -7   77.99   16.40
  -2  -1  -7   83.49   15.80
  -2  -1  -7   79.59   15.20
  -2  -1  -7   82.39   36.20
   2   1   7   84.39   17.80
   2   1   7   80.19   16.20
   2   1   7   88.99   17.40
   2   1   7   83.99   40.00
   2   1   7   72.99   15.10
  -3  -1  -7 1540.25   87.59
  -3  -1  -7 1463.65  135.89
   3   1   7 1516.55   82.79
   3   1   7 1570.74   89.99
   3   1   7 1433.36   78.39
   3   1   7 1337.37  144.29
   3   1   7 1477.05   85.89
  -4  -1  -7 1132.79   68.79
  -4  -1  -7 1276.67  133.39
   4   1   7 1304.27   82.39
   4   1   7 1217.88   76.69
   4   1   7 1179.98  146.19
   4   1   7 1265.07   73.89
   4   1   7 1155.88   64.89
  -5  -1  -7   36.70   26.20
  -5  -1  -7   78.79   17.00
   5   1   7   95.09   24.40
   5   1   7  104.59   23.60
   5   1   7   97.39   22.50
  -6  -1  -7  266.77   78.89
  -6  -1  -7  418.96   36.10
  -6  -1  -7  262.67   42.00
  -6  -1  -7  429.36   82.49
   6   1   7  255.77  105.09
   6   1   7  280.17   33.50
   6   1   7  363.36   39.60
   6   1   7  439.86   61.09
   5  -2  -7  275.97   44.00
   5  -2  -7  188.08   30.40
  -5   2   7  151.98   82.49
  -5   2   7  262.47   30.70
  -5   2   7  194.48  102.89
  -5   2   7  213.58   41.00
   4  -2  -7 1191.98   82.39
   4  -2  -7 1083.29   69.29
  -4   2   7 1336.87   77.59
  -4   2   7 1123.99   79.79
  -4   2   7  843.02  162.08
  -4   2   7 1316.47  136.89
   3  -2  -7 1341.87   83.29
   3  -2  -7 1112.49   70.39
  -3   2   7 1373.56   77.09
  -3   2   7 1247.68  160.88
  -3   2   7 1054.79  200.28
  -3   2   7 1326.97   82.19
   2  -2  -7   30.20   11.50
  -2   2   7   -2.30    6.70
  -2   2   7   21.30    8.70
  -2   2   7   15.90   10.20
  -2   2   7    9.20   16.20
   1  -2  -7 3418.56  165.48
  -1   2   7 3529.35  175.08
  -1   2   7 3451.45  233.48
   0  -2  -7 3618.04  240.48
   0  -2  -7 3441.06  171.78
   0  -2  -7 3801.72  179.08
   0   2   7 3650.03  242.78
   0   2   7 3564.94  173.28
   0   2   7 3566.24  177.58
  -1  -2  -7  290.67   26.30
  -1  -2  -7  235.68   20.90
  -1  -2  -7  395.26   87.49
  -1  -2  -7  314.87   28.90
   1   2   7  281.77   28.10
   1   2   7  391.16   91.59
   1   2   7  240.18   23.90
   1   2   7  302.27   27.00
  -2  -2  -7 1557.84   85.99
  -2  -2  -7 1524.85   87.59
  -2  -2  -7 1592.24  146.29
  -2  -2  -7 1524.55   83.49
   2   2   7 1585.94   95.29
   2   2   7 1475.65  146.49
   2   2   7 1612.24   87.49
   2   2   7 1524.95   86.99
   2   2   7 1538.85   86.09
  -3  -2  -7 3409.66  171.08
  -3  -2  -7 3350.26  243.68
  -3  -2  -7 3438.66  171.08
  -3  -2  -7 3430.26  168.98
   3   2   7 3403.96  167.48
   3   2   7 3673.13  175.38
   3   2   7 3562.74  176.88
   3   2   7 3224.78  255.57
   3   2   7 3451.35  169.78
  -4  -2  -7  719.63   53.09
  -4  -2  -7  724.83   49.00
  -4  -2  -7  645.74  109.89
  -4  -2  -7  719.43   53.89
   4   2   7  691.83   46.20
   4   2   7  753.22   57.69
   4   2   7  665.13  127.69
   4   2   7  708.43   54.09
   4   2   7  727.83   50.49
  -5  -2  -7  300.37   26.70
  -5  -2  -7  332.07   35.40
  -5  -2  -7  304.47   79.19
  -5  -2  -7  272.97   28.20
   5   2   7  274.77   33.10
   5   2   7  286.77   92.49
   5   2   7  281.37   46.20
   5   2   7  328.77   27.90
   5   2   7  327.27   32.00
  -6  -2  -7 1108.79   82.29
  -6  -2  -7 1229.18   75.79
  -6  -2  -7 1264.77   70.09
  -6  -2  -7 1256.17  158.68
  -6  -2  -7 1043.80   82.29
   6   2   7 1199.78   84.09
   6   2   7 1175.88   77.69
   6   2   7 1140.69   70.09
   6   2   7 1227.68   90.19
  -7  -2  -7  510.15   57.99
  -7  -2  -7  550.24   58.59
  -7  -2  -7  706.83   46.90
  -7  -2  -7  400.26  105.99
  -7  -2  -7  749.23   55.09
   7   2   7  572.24   52.79
   7   2   7  805.32  204.78
   7   2   7  694.63   67.19
   7   2   7  676.03   61.39
   4  -3  -7 1494.95  100.99
  -4   3   7 1281.37  150.68
  -4   3   7 1473.95   89.09
  -4   3   7 1301.27   97.29
  -4   3   7 1238.08  232.58
   3  -3  -7   32.10   12.90
   3  -3  -7   64.59   19.70
  -3   3   7   37.30   16.80
  -3   3   7   29.20   30.00
  -3   3   7   73.79   19.40
   2  -3  -7 1116.79   67.39
   2  -3  -7 1091.19   77.89
  -2   3   7 1194.38   70.39
  -2   3   7 1124.99   76.79
  -2   3   7 1106.09  123.59
  -2   3   7 1123.99  286.47
   1  -3  -7 2532.55  129.79
   1  -3  -7 2733.63  143.69
  -1   3   7 2582.64  131.99
  -1   3   7 2501.75  140.09
  -1   3   7 2522.95  200.78
   0  -3  -7  993.80   62.39
   0  -3  -7 1116.89   72.09
   0  -3  -7 1080.39   57.29
   0  -3  -7 1151.88  123.49
   0   3   7  996.40   63.29
   0   3   7 1009.30  116.79
   0   3   7 1089.89   69.99
   0   3   7  983.20   68.69
  -1  -3  -7 1110.39  182.98
  -1  -3  -7 1081.19   67.49
  -1  -3  -7 1212.88   74.59
   1   3   7 1277.37  159.08
   1   3   7 1016.70   65.49
   1   3   7 1185.28   71.29
   1   3   7 1037.60   68.79
  -2  -3  -7 3966.20  196.18
  -2  -3  -7 4150.08  200.88
  -2  -3  -7 4179.18  284.57
  -2  -3  -7 3835.32  189.18
   2   3   7 3924.51  195.18
   2   3   7 3969.40  193.88
   2   3   7 4083.79  283.07
   2   3   7 3883.71  194.48
  -3  -3  -7 2505.15  129.99
  -3  -3  -7 2499.25  132.59
  -3  -3  -7 2592.84  134.29
   3   3   7 2361.26  130.39
   3   3   7 2681.73  135.39
   3   3   7 2432.86  129.19
   3   3   7 2564.24  137.49
  -4  -3  -7   37.10   10.90
  -4  -3  -7   20.50   16.50
  -4  -3  -7   34.60   12.60
  -4  -3  -7   11.00   18.30
   4   3   7   18.10   11.10
   4   3   7   26.00   10.20
   4   3   7   31.90   30.30
   4   3   7   31.90   11.60
   4   3   7   26.30   12.20
  -5  -3  -7 3162.48  170.48
  -5  -3  -7 3141.59  255.07
  -5  -3  -7 3146.69  160.38
  -5  -3  -7 2984.60  167.08
   5   3   7 3314.97  170.98
   5   3   7 2729.63  264.67
   5   3   7 3039.90  156.78
   5   3   7 3346.87  174.78
   5   3   7 3218.88  162.38
  -6  -3  -7 1895.11  100.39
  -6  -3  -7 1886.21  105.49
  -6  -3  -7 2030.50  200.88
  -6  -3  -7 1568.24  110.89
  -6  -3  -7 1812.22  112.79
   6   3   7 1494.45  206.48
   6   3   7 1795.62  113.49
   6   3   7 1866.31  101.99
   6   3   7 1792.72  106.19
  -7  -3  -7  100.49   19.90
  -7  -3  -7   90.69   20.30
  -7  -3  -7   82.09   26.80
  -7  -3  -7   96.19   28.50
   7   3   7   83.99   23.20
   7   3   7  132.39   33.80
   7   3   7   77.69   19.80
   7   3   7   45.60   65.79
   7   3   7   81.49   25.90
   3  -4  -7  434.26   48.40
   3  -4  -7  314.37   33.80
   3  -4  -7  376.66   41.30
  -3   4   7  396.26   44.90
  -3   4   7  357.46  127.79
  -3   4   7  262.87  111.09
  -3   4   7  416.26   38.80
   2  -4  -7 2264.07  110.19
   2  -4  -7 2004.00  114.49
  -2   4   7 1869.61  188.08
  -2   4   7 2077.29  127.79
  -2   4   7 2125.39  236.58
  -2   4   7 2256.27  117.79
   1  -4  -7 1110.99   69.59
   1  -4  -7 1272.07   85.79
  -1   4   7 1278.57   83.39
  -1   4   7 1052.19  128.59
  -1   4   7  772.72  146.59
  -1   4   7 1180.78   72.09
   0  -4  -7   25.90   11.40
   0  -4  -7   24.90   12.40
   0  -4  -7   13.70   19.50
   0   4   7   39.20   15.40
   0   4   7   44.50   12.80
   0   4   7   19.10   23.40
   0   4   7   52.39   17.70
  -1  -4  -7 3090.99  159.68
  -1  -4  -7 2866.71  148.09
  -1  -4  -7 2932.51  143.29
  -1  -4  -7 3158.68  242.78
   1   4   7 2877.31  237.28
   1   4   7 2911.31  147.99
   1   4   7 2230.98  174.58
   1   4   7 3075.39  155.68
  -2  -4  -7 3528.25  185.58
  -2  -4  -7 3703.13  180.68
  -2  -4  -7 4039.00  196.28
  -2  -4  -7 3771.92  277.07
   2   4   7 3756.02  184.88
   2   4   7 3595.54  184.48
   2   4   7 3560.64  186.68
   2   4   7 3795.02  280.27
  -3  -4  -7  221.88   78.99
  -3  -4  -7  133.79   25.50
  -3  -4  -7  177.88   30.90
  -3  -4  -7  182.98   27.00
   3   4   7  161.48   57.89
   3   4   7  144.19   24.60
   3   4   7  160.68   28.60
   3   4   7  189.88   28.90
  -4  -4  -7 1410.86   84.69
  -4  -4  -7 1479.35   92.29
  -4  -4  -7 2456.65  448.16
  -4  -4  -7 1527.85   90.19
  -4  -4  -7 1356.26   87.79
   4   4   7 1364.46   86.89
   4   4   7 1780.12  335.47
   4   4   7 1580.24   93.89
   4   4   7 1532.85   92.39
  -5  -4  -7 2376.56  135.69
  -5  -4  -7 2327.67  123.99
  -5  -4  -7 2465.45  130.19
  -5  -4  -7 2251.57  131.89
  -5  -4  -7 2309.37  220.98
   5   4   7 2081.79  225.78
   5   4   7 2353.86  128.69
   5   4   7 2302.07  125.49
   5   4   7 2553.74  137.19
  -6  -4  -7  664.83   57.89
  -6  -4  -7  699.53   54.89
  -6  -4  -7  668.43   60.99
  -6  -4  -7  747.13   52.79
  -6  -4  -7  643.44  141.19
   6   4   7  729.33  170.48
   6   4   7  751.62   62.19
   6   4   7  759.62   67.99
   6   4   7  709.23   56.09
   6   4   7  735.93   53.79
  -7  -4  -7  346.77   36.70
  -7  -4  -7  272.87   48.90
  -7  -4  -7  341.37   34.50
  -7  -4  -7  287.17   71.19
  -7  -4  -7  321.67  106.49
   7   4   7  259.07   40.50
   7   4   7  308.77   48.20
   7   4   7  347.37   55.29
   7   4   7  305.07   34.70
   3  -5  -7  652.23   56.29
   3  -5  -7  920.31   58.49
   3  -5  -7  739.93   71.29
  -3   5   7  825.12   60.59
  -3   5   7  523.55   82.49
  -3   5   7  578.24  135.69
  -3   5   7  646.04   66.99
  -3   5   7  428.26  124.09
   2  -5  -7 1080.19   68.09
   2  -5  -7  925.21   68.59
   2  -5  -7 1050.49   85.29
  -2   5   7  916.61   79.99
  -2   5   7 1163.78   73.09
  -2   5   7 1017.60   75.39
  -2   5   7 1702.23  287.67
   1  -5  -7   18.90   10.80
   1  -5  -7   74.39   23.70
  -1   5   7   36.30   40.20
  -1   5   7   71.59   50.79
  -1   5   7   57.59   20.00
  -1   5   7   50.09   17.90
  -1   5   7   82.59   18.20
   0  -5  -7  744.93   66.39
   0  -5  -7  845.22   58.69
   0   5   7  959.40  162.58
   0   5   7  753.92   61.19
   0   5   7  949.60   60.59
   0   5   7  911.41   68.89
  -1  -5  -7 2170.58  216.18
  -1  -5  -7 2509.65  135.99
  -1  -5  -7 2536.25  147.19
   1   5   7 2649.93  236.58
   1   5   7 2588.14  134.29
   1   5   7 2555.64  142.59
  -2  -5  -7  667.23   54.29
  -2  -5  -7  809.42   54.39
  -2  -5  -7  778.42   63.59
  -2  -5  -7  620.94  115.19
   2   5   7  766.12   54.89
   2   5   7  827.72  146.39
   2   5   7  782.32   59.69
  -3  -5  -7  509.65   47.70
  -3  -5  -7  425.16   95.59
  -3  -5  -7  548.85   50.79
  -3  -5  -7  535.65   47.80
   3   5   7  526.35   44.40
   3   5   7  466.95  104.29
   3   5   7  501.25   44.70
  -4  -5  -7 2188.78  165.78
  -4  -5  -7 2643.24  145.79
  -4  -5  -7 2687.53  145.99
  -4  -5  -7 2732.43  138.39
   4   5   7 2466.65  138.99
   4   5   7 2582.44  246.58
   4   5   7 2724.23  143.39
   4   5   7 2449.55  135.69
  -5  -5  -7 1758.92  106.69
  -5  -5  -7 1672.33   99.39
  -5  -5  -7 1897.01  112.99
  -5  -5  -7 1687.23  306.37
   5   5   7 1609.74   99.99
   5   5   7 1969.60  111.69
   5   5   7 1659.63  291.17
  -6  -5  -7   19.70   12.90
  -6  -5  -7   -6.50   10.60
  -6  -5  -7    1.30    5.80
  -6  -5  -7   23.20   12.40
  -6  -5  -7    2.50    7.10
   6   5   7   -1.90    4.40
   6   5   7    6.80   10.50
   6   5   7   -1.90   13.30
  -7  -5  -7 1219.08   91.89
  -7  -5  -7  964.30  109.79
  -7  -5  -7 1167.98   81.99
  -7  -5  -7 1272.77  224.68
  -7  -5  -7 1206.68   78.59
   7   5   7 1278.87   89.49
   7   5   7  795.22  186.68
   7   5   7 1124.79   79.29
   7   5   7 1202.48   88.09
   2  -6  -7  111.79   36.10
   2  -6  -7  113.99   33.20
   2  -6  -7  100.89   24.30
  -2   6   7   61.29   28.80
  -2   6   7  146.69   90.09
  -2   6   7  142.29   28.60
   1  -6  -7  178.68   46.10
  -1   6   7  261.27   95.59
  -1   6   7  196.08   34.00
  -1   6   7  202.58   55.39
  -1   6   7  245.98  115.19
  -1   6   7  249.68   29.10
   0  -6  -7 1035.40   85.59
   0  -6  -7 1128.29   74.59
   0   6   7 1148.79   73.49
   0   6   7  749.53  142.29
   0   6   7 1179.48   85.89
  -1  -6  -7  718.73  183.18
  -1  -6  -7  798.02   59.69
  -1  -6  -7  715.43   66.89
   1   6   7  826.92  160.38
   1   6   7  859.81   58.39
   1   6   7  751.42   64.29
   1   6   7  762.12   57.69
  -2  -6  -7   17.90   13.20
  -2  -6  -7    6.40   10.90
  -2  -6  -7   13.80   23.00
   2   6   7   11.50   28.40
   2   6   7   -0.40    6.60
   2   6   7    5.20    7.40
   2   6   7   -4.10    3.40
  -3  -6  -7 1276.27   88.49
  -3  -6  -7 1400.16   97.39
  -3  -6  -7 1481.75  173.38
   3   6   7 1213.78   86.39
   3   6   7 1299.97  216.38
   3   6   7 1427.26   86.29
  -4  -6  -7 1542.05   92.39
  -4  -6  -7 1579.24  186.18
  -4  -6  -7 1495.75  101.99
  -4  -6  -7 1424.96   98.99
   4   6   7 1541.15   94.59
   4   6   7 1342.27   91.29
   4   6   7 1603.94  191.98
  -5  -6  -7  146.49   75.69
  -5  -6  -7   69.09   17.50
  -5  -6  -7   73.99   21.30
  -5  -6  -7  118.99   26.30
   5   6   7  103.09   24.00
   5   6   7   36.00   36.90
   5   6   7  104.39   23.90
   5   6   7   81.79   20.40
  -6  -6  -7  929.91   74.29
  -6  -6  -7  876.91   64.19
  -6  -6  -7  804.52   67.89
  -6  -6  -7 1577.94  431.46
  -6  -6  -7  933.41   71.39
   6   6   7  944.41   70.99
   6   6   7  840.32   79.19
   6   6   7  842.52   64.29
  -7  -6  -7 1678.33  211.18
  -7  -6  -7 1572.64  112.79
  -7  -6  -7 1787.22  110.29
  -7  -6  -7 1766.02  104.09
  -7  -6  -7 1538.85  108.59
   7   6   7 1620.64  109.09
   7   6   7 1613.64  103.99
   7   6   7 1023.70  195.48
   7   6   7 1753.02  109.49
   0  -7  -7  431.16   75.19
   0   7   7  440.06   63.79
   0   7   7  381.76   38.30
   0   7   7  338.07  112.69
   0   7   7  347.37   38.90
  -1  -7  -7    1.70    8.10
  -1  -7  -7   17.60   16.50
   1   7   7    6.50    9.80
   1   7   7    5.10   11.20
   1   7   7   24.30   47.70
   1   7   7    5.40    8.60
  -2  -7  -7  474.25  122.99
  -2  -7  -7  436.16   45.20
  -2  -7  -7  439.86   51.09
   2   7   7  497.95   42.30
   2   7   7  351.46   37.60
   2   7   7  494.25  124.59
   2   7   7  340.27   59.49
  -3  -7  -7 1030.70   83.29
  -3  -7  -7 1380.96  235.38
  -3  -7  -7  970.50   88.79
  -3  -7  -7  932.51   75.59
   3   7   7  888.41   66.39
   3   7   7  976.50   68.79
   3   7   7  985.20   88.49
   3   7   7 1372.46  235.98
  -4  -7  -7  425.86  132.39
  -4  -7  -7  126.69   35.50
  -4  -7  -7  150.88   37.20
  -4  -7  -7  136.79   29.40
  -4  -7  -7  217.48   35.70
   4   7   7  219.18   34.40
   4   7   7  212.88   87.89
   4   7   7  222.88   35.50
  -5  -7  -7  217.48   37.70
  -5  -7  -7  217.58   34.90
  -5  -7  -7  299.87   57.19
  -5  -7  -7  213.38   42.20
  -5  -7  -7  277.67  106.09
   5   7   7  217.48   36.40
   5   7   7  330.07   36.00
   5   7   7  139.79   70.09
   5   7   7  226.08   37.60
  -6  -7  -7 1308.67  111.39
  -6  -7  -7 1100.09   76.09
  -6  -7  -7  998.50  198.08
  -6  -7  -7 1016.40   81.49
  -6  -7  -7 1031.50   84.59
   6   7   7 1032.80   75.89
   6   7   7 1130.59   79.49
   6   7   7 1053.09   77.09
   6   7   7  869.11  196.68
  -7  -7  -7  570.54   57.19
  -7  -7  -7  547.05   50.09
  -7  -7  -7  506.45   58.49
   7   7   7  524.55   51.19
   7   7   7  504.85   85.49
   7   7   7  148.19  123.29
   7   7   7  645.44   57.49
  -2  -8  -7  203.58   39.10
  -2  -8  -7  350.96  117.09
  -2  -8  -7  164.08   37.70
   2   8   7  244.88  111.49
   2   8   7  147.69   30.80
   2   8   7  295.87   32.70
   2   8   7  210.48   42.10
  -3  -8  -7  188.48   83.09
  -3  -8  -7  213.78   45.80
  -3  -8  -7  147.59   37.20
   3   8   7  134.39   34.60
   3   8   7  139.79   31.00
   3   8   7  202.08   32.20
   3   8   7   90.29   59.79
  -4  -8  -7   -3.30   17.80
  -4  -8  -7   11.20   13.30
  -4  -8  -7    0.90   11.20
  -4  -8  -7    1.60    9.80
   4   8   7    7.30   11.20
   4   8   7   -6.10    4.30
   4   8   7    0.90    8.30
   4   8   7   -3.90   15.40
  -5  -8  -7  463.25   45.80
  -5  -8  -7  357.66   53.29
  -5  -8  -7  437.96   64.19
  -5  -8  -7  332.77  104.99
  -5  -8  -7  469.15   69.09
   5   8   7  374.56   41.80
   5   8   7  454.15   43.70
   5   8   7  313.07   48.00
   5   8   7  340.17  113.39
  -6  -8  -7  451.45   45.70
  -6  -8  -7  431.16   62.09
  -6  -8  -7  570.44   60.89
  -6  -8  -7  405.06   64.09
  -6  -8  -7  297.87  108.39
   6   8   7  297.87   50.39
   6   8   7  405.96   45.30
   6   8   7  492.45   47.10
   6   8   7  278.97  117.19
  -4  -4   8  598.44   50.29
  -3  -4   8    1.40    5.50
  -3  -4   8   11.70    9.80
  -2  -4   8  545.35   42.00
  -2  -4   8  515.95   40.20
  -1  -4   8  666.63   51.19
   0  -4   8   76.99   20.10
  -5  -3   8  937.61   52.19
  -5  -3   8  846.02   52.89
  -5  -3   8  858.71   67.59
  -4  -3   8   86.19   20.90
  -3  -3   8  350.96   35.20
  -2  -3   8 1294.77   73.99
  -2  -3   8 1349.27   79.29
  -1  -3   8  519.65   36.80
  -1  -3   8  457.75   38.30
   0  -3   8   68.49   18.20
   1  -3   8 1109.29   83.39
   1  -3   8 1113.79   60.79
   1  -3   8 1068.79   58.69
  -2   3  -8  544.65   69.79
   2  -3   8  515.75   40.50
   2  -3   8  556.14   40.60
   2  -3   8  656.33   53.49
  -5  -2   8  420.96   32.20
  -5  -2   8  409.36   43.30
  -5  -2   8  378.76   33.40
  -5  -2   8  365.16   64.09
  -5  -2   8  512.15   84.59
  -4  -2   8  147.59   15.40
  -4  -2   8  139.79   20.50
  -2  -2   8 1076.49   58.49
  -1  -2   8   42.60   11.60
   0  -2   8 1550.44   87.79
   1  -2   8 1535.75   87.19
   1  -2   8 1403.06   72.49
   1  -2   8 1388.96   75.19
  -2   2  -8  124.39   38.90
   2  -2   8  121.19   19.90
   2  -2   8  149.79   17.10
   2  -2   8  157.58   28.20
   2  -2   8  121.49   42.40
  -3   2  -8  333.47   92.79
   3  -2   8  338.37   32.40
   3  -2   8  397.16   41.00
   3  -2   8  342.97   31.20
   4  -2   8 1173.08   85.69
   4  -2   8 1118.79   74.99
  -5  -1   8   18.00    9.70
  -5  -1   8   12.40   16.40
  -5  -1   8    9.60    9.10
  -5  -1   8   59.29   59.69
  -4  -1   8 1187.68  107.99
  -4  -1   8 1397.26   78.49
  -4  -1   8 1412.56   75.59
  -3  -1   8 1573.74   83.89
  -3  -1   8 1546.95   80.39
  -3  -1   8 1553.24  115.19
  -3  -1   8 1573.94  128.09
  -2  -1   8  199.98   18.90
  -2  -1   8  185.98   16.00
  -1  -1   8 1018.80   51.89
  -1  -1   8  856.91   51.19
   0  -1   8 2972.40  148.49
   0  -1   8 3219.48  143.19
   0  -1   8 2950.90  141.69
  -1   1  -8  751.42   69.49
   1  -1   8  518.05   36.40
   1  -1   8  676.63   70.19
   1  -1   8  657.63   45.90
   1  -1   8  624.74   39.80
  -2   1  -8  325.57   68.09
   2  -1   8  290.97   39.90
   2  -1   8  256.37   62.49
   2  -1   8  282.77   26.10
   2  -1   8  298.57   24.90
  -3   1  -8 2205.48  172.88
  -3   1  -8 2240.78  108.89
   3  -1   8 2261.07  125.99
   3  -1   8 2126.39  125.59
   3  -1   8 1952.80  185.78
  -4   1  -8  906.31   55.39
  -4   1  -8  893.81  113.89
   4  -1   8  824.32  157.38
   4  -1   8  942.41   61.69
   4  -1   8  950.60   72.19
   4  -1   8  855.61   62.19
  -5   1  -8    7.10    7.80
   5  -1   8    1.90   10.10
   5  -1   8   -5.40   16.80
   5  -1   8    5.90    7.80
   5  -1   8    7.80    8.60
   5   0  -8  579.54   41.80
   5   0  -8  660.43   47.00
  -5   0   8  613.74   50.69
  -5   0   8  559.24  102.19
  -5   0   8  688.63  136.09
  -5   0   8  665.63   48.80
   4   0  -8 1355.66   72.99
   4   0  -8 1252.07   68.89
  -4   0   8 1369.16   80.29
  -4   0   8 1098.29  112.79
  -4   0   8 1243.08  141.69
  -4   0   8 1322.87   76.19
  -3   0   8  325.97   27.40
  -3   0   8  307.27   28.90
  -3   0   8  344.77   80.19
  -2   0   8  710.83   84.99
  -2   0   8  613.04   42.90
  -2   0   8  620.04   39.80
  -2   0   8  561.04   68.89
  -1   0   8 3666.23  173.38
  -1   0   8 3469.85  169.28
  -1   0   8 4032.80  223.18
  -1   0   8 3488.35  225.58
   0   0  -8 1801.12  124.39
   0   0   8 1720.63   89.09
   0   0   8 1743.73  128.89
   0   0   8 1695.23   87.99
   0   0   8 1775.22   89.49
  -1   0  -8   31.60   10.40
  -1   0  -8   49.30   25.70
   1   0   8   19.10   17.70
   1   0   8   31.80    8.90
   1   0   8   24.90   10.20
   1   0   8   34.50    9.80
   1   0   8   42.10   11.70
  -2   0  -8 1678.43   85.09
  -2   0  -8 1718.33  140.09
  -2   0  -8 1655.43   93.99
  -2   0  -8 1703.43   86.99
   2   0   8 1790.62   96.79
   2   0   8 1641.34   88.59
   2   0   8 1630.04   91.29
  -3   0  -8 2578.54  275.57
  -3   0  -8 2506.05  125.09
   3   0   8 2364.46  131.19
   3   0   8 2643.14  139.19
   3   0   8 2613.14  130.09
  -4   0  -8  158.98   56.49
  -4   0  -8  134.29   31.10
  -4   0  -8  165.88   19.20
  -4   0  -8  153.78   26.00
   4   0   8  116.79   27.90
   4   0   8  182.08   27.80
   4   0   8  150.08   31.50
   4   0   8   53.29   40.00
  -5   0  -8  713.53  141.19
  -5   0  -8  546.05   51.19
   5   0   8  755.62   63.79
   5   0   8  708.23   55.89
   5   0   8  742.23   53.99
   5   0   8  475.65  117.59
   5  -1  -8  557.24   57.79
   5  -1  -8  645.54   53.29
  -5   1   8  667.13   50.99
  -5   1   8  393.96   89.69
  -5   1   8  627.44   56.79
   4  -1  -8  540.65   43.80
   4  -1  -8  502.35   38.00
  -4   1   8  445.76   91.29
  -4   1   8  533.25  126.59
  -4   1   8  493.85   45.10
  -4   1   8  567.54   43.10
   3  -1  -8  101.49   19.90
   3  -1  -8   80.89   15.40
  -3   1   8   92.39   20.70
  -3   1   8   98.99   18.80
  -3   1   8  119.29   87.79
  -3   1   8   36.50   22.70
   2  -1  -8 1500.05   78.79
  -2   1   8 1325.67   77.49
  -2   1   8 1286.47  143.19
  -2   1   8 1418.36   82.29
   1  -1  -8 1373.06   78.89
   1  -1  -8 1420.06   75.59
   0  -1  -8  119.09   18.20
   0  -1  -8  108.59   14.70
   0  -1  -8  124.89   40.80
   0  -1  -8   83.69   14.10
   0   1   8  112.49   17.50
   0   1   8  105.49   18.30
   0   1   8   82.69   14.00
  -1  -1  -8 1943.81  147.69
  -1  -1  -8 1583.74   84.79
  -1  -1  -8 1737.83   88.29
  -1  -1  -8 1640.54   92.29
   1   1   8 1646.44   89.49
   1   1   8 1551.44   92.29
   1   1   8 1780.92  150.08
  -2  -1  -8 2663.43  136.19
  -2  -1  -8 2820.02  133.49
  -2  -1  -8 2731.43  135.29
  -2  -1  -8 3012.20  206.08
   2   1   8 2432.46  134.79
   2   1   8 2526.75  135.09
   2   1   8 2857.01  139.89
   2   1   8 2576.74  202.98
   2   1   8 2677.63  134.89
  -3  -1  -8  321.97   28.40
  -3  -1  -8  331.87   73.89
   3   1   8  344.57   30.50
   3   1   8  324.97   27.50
   3   1   8  364.66   33.30
   3   1   8  336.97   33.90
  -4  -1  -8  286.57   28.70
  -4  -1  -8  393.26   93.09
   4   1   8  282.87   31.30
   4   1   8  305.87   42.20
   4   1   8  304.17   30.50
  -5  -1  -8 1698.93  108.39
  -5  -1  -8 1635.24  102.69
  -5  -1  -8 1698.63   96.09
  -5  -1  -8 1518.35  166.88
   5   1   8 1841.02  118.19
   5   1   8 1587.84  193.28
   5   1   8 1719.83  105.99
   5   1   8 1888.31  113.79
  -6  -1  -8  808.12   71.39
  -6  -1  -8  838.82   68.39
  -6  -1  -8  922.01   62.29
  -6  -1  -8  798.92  155.58
   6   1   8  939.91   77.39
   6   1   8  659.33  163.98
   6   1   8  889.01   66.69
   6   1   8  954.00   71.89
   4  -2  -8   18.80   10.70
   4  -2  -8   14.60   11.50
  -4   2   8   -2.10   14.90
  -4   2   8   15.80    9.60
  -4   2   8    3.80   11.00
  -4   2   8    6.40    9.40
   3  -2  -8  372.96   36.30
   3  -2  -8  277.57   27.60
  -3   2   8  381.16   91.69
  -3   2   8  301.97   34.20
  -3   2   8  344.37  105.99
  -3   2   8  340.37   34.00
   2  -2  -8 1016.60   67.79
  -2   2   8  926.01   59.79
  -2   2   8  896.81  167.58
  -2   2   8  874.81   63.39
  -1   2   8  111.89   23.80
  -1   2   8  137.79   21.40
  -1   2   8  142.59   51.59
   0  -2  -8  210.28   58.79
   0   2   8  237.98   23.60
   0   2   8  190.88   59.69
   0   2   8  212.18   31.20
  -1  -2  -8 1752.42  148.69
  -1  -2  -8 1430.36   82.39
   1   2   8 1450.25   81.99
   1   2   8 1475.95  140.49
   1   2   8 1384.66   86.29
   1   2   8 1535.15   84.79
  -2  -2  -8 1272.87   93.89
  -2  -2  -8 1076.89   65.29
  -2  -2  -8 1029.90  117.49
   2   2   8 1067.79   68.69
   2   2   8 1057.49   69.09
   2   2   8 1123.19  126.79
   2   2   8 1154.38   68.99
   2   2   8 1170.78   68.79
  -3  -2  -8  172.58   55.89
  -3  -2  -8  212.58   23.90
  -3  -2  -8  232.78   33.00
   3   2   8  258.57   81.99
   3   2   8  192.28   22.30
   3   2   8  215.88   24.20
   3   2   8  233.18   34.50
   3   2   8  248.78   27.00
  -4  -2  -8 1146.99   70.29
  -4  -2  -8 1208.38  134.89
   4   2   8 1136.39   75.89
   4   2   8 1193.68   72.79
   4   2   8 1102.19   78.29
   4   2   8 1125.09   67.69
  -5  -2  -8  946.61   62.79
  -5  -2  -8  796.52  142.09
  -5  -2  -8  988.60   84.29
   5   2   8  975.30   70.59
   5   2   8  959.40   74.29
   5   2   8  936.81   58.89
   5   2   8  970.00   66.19
  -6  -2  -8   24.20   16.40
  -6  -2  -8    2.80   10.10
  -6  -2  -8   20.00   11.80
  -6  -2  -8   10.10   20.60
   6   2   8   15.80   26.40
   6   2   8   16.10   11.80
   6   2   8   24.50   14.90
   6   2   8   11.40   11.10
   6   2   8   12.70   12.20
   4  -3  -8    0.40    9.70
   4  -3  -8   -0.30    7.80
  -4   3   8    4.20    7.90
  -4   3   8    6.50   27.30
  -4   3   8    0.70    8.80
  -4   3   8   -0.70   13.70
   3  -3  -8  200.28   30.10
   3  -3  -8  239.98   38.00
  -3   3   8  273.67   82.09
  -3   3   8  277.57   29.90
  -3   3   8  187.78   36.90
   2  -3  -8  311.87   30.50
   2  -3  -8  360.86   38.20
  -2   3   8  334.07   37.40
  -2   3   8  338.87   32.10
  -2   3   8  466.75  130.29
   1  -3  -8   17.60    8.50
   1  -3  -8   34.20   13.60
  -1   3   8   35.30   11.90
  -1   3   8   24.20   22.40
  -1   3   8   19.60   10.70
   0  -3  -8  431.16   28.70
   0  -3  -8  324.17   77.89
   0  -3  -8  402.96   34.70
   0  -3  -8  478.25   41.80
   0   3   8  479.75   41.20
   0   3   8  462.65   37.20
   0   3   8  398.26   86.09
  -1  -3  -8  594.74  111.39
  -1  -3  -8  734.63   53.19
  -1  -3  -8  612.74   40.90
  -1  -3  -8  629.14   60.49
   1   3   8  640.94  114.69
   1   3   8  711.03   50.69
   1   3   8  624.74   46.30
  -2  -3  -8   37.10   13.30
  -2  -3  -8   22.70    9.00
   2   3   8   17.80   24.50
   2   3   8   25.00   10.80
   2   3   8   20.60   10.60
   2   3   8   31.30    9.80
  -3  -3  -8  528.75   41.60
  -3  -3  -8  782.52  145.59
  -3  -3  -8  588.34   45.60
  -3  -3  -8  513.55   43.90
   3   3   8  532.45   43.20
   3   3   8  498.15  103.39
   3   3   8  565.14   47.80
   3   3   8  542.15   43.30
   3   3   8  583.14   45.70
  -4  -3  -8  677.73  121.59
  -4  -3  -8  947.31   62.19
  -4  -3  -8  895.61   62.69
  -4  -3  -8  917.81   64.19
   4   3   8  852.11   62.89
   4   3   8  929.61   60.29
   4   3   8  971.20   66.29
   4   3   8  832.62   65.79
   4   3   8  911.81  162.58
  -5  -3  -8  427.46   98.79
  -5  -3  -8  515.05   46.50
  -5  -3  -8  503.45   42.90
  -5  -3  -8  506.25   47.10
  -5  -3  -8  549.85   41.70
   5   3   8  529.85   50.99
   5   3   8  539.25   48.80
   5   3   8  499.55   43.90
   5   3   8  504.15   41.10
  -6  -3  -8  184.28   35.30
  -6  -3  -8  149.29   33.40
  -6  -3  -8  216.18   35.20
  -6  -3  -8  396.76  181.58
  -6  -3  -8  204.68   24.40
   6   3   8  226.68   32.80
   6   3   8  204.08   34.20
   6   3   8  180.28   39.00
   6   3   8  190.98   37.60
  -7  -3  -8  683.83   67.49
  -7  -3  -8  686.23   66.69
  -7  -3  -8 1405.16  238.78
  -7  -3  -8  781.32   60.29
  -7  -3  -8  883.31   57.29
   7   3   8  844.02   75.29
   7   3   8  663.13   54.79
   7   3   8  799.02   69.29
   7   3   8  747.53   62.69
   7   3   8  505.25  147.99
   3  -4  -8   28.30   14.80
   3  -4  -8   63.29   21.30
  -3   4   8   63.39   17.60
  -3   4   8   24.80   14.40
  -3   4   8   35.10   50.69
  -3   4   8    8.10   16.20
   2  -4  -8   40.40   16.70
   2  -4  -8   24.50   12.10
  -2   4   8    6.10    8.40
  -2   4   8   84.39   59.59
  -2   4   8   48.90   13.70
   1  -4  -8   42.00   13.80
   1  -4  -8   38.30   17.40
  -1   4   8   36.50   15.30
  -1   4   8   26.70   27.30
  -1   4   8   41.10   14.10
  -1   4   8   24.80   12.60
   0  -4  -8  438.16   44.50
   0  -4  -8  465.45   39.20
   0  -4  -8  433.76   33.30
   0  -4  -8  523.55  122.69
   0   4   8  515.05   45.80
   0   4   8  674.23  135.09
   0   4   8  471.95   39.50
  -1  -4  -8  208.88   31.60
  -1  -4  -8  303.27   42.20
  -1  -4  -8  176.58   20.50
  -1  -4  -8  261.87   80.29
   1   4   8  233.68   36.00
   1   4   8  263.47   27.30
   1   4   8  249.68   80.79
  -2  -4  -8   10.70    7.10
  -2  -4  -8   22.50   12.00
  -2  -4  -8    2.90    8.10
  -2  -4  -8   16.10    8.00
   2   4   8   17.40   10.10
   2   4   8   36.80   13.20
   2   4   8    8.40    9.20
   2   4   8   -3.70    6.50
  -3  -4  -8  518.25  107.29
  -3  -4  -8  546.35   49.20
  -3  -4  -8  633.74   50.19
  -3  -4  -8  586.74   44.70
   3   4   8  546.85   45.80
   3   4   8  664.43   49.10
   3   4   8  656.33  140.49
   3   4   8  509.85   45.30
  -4  -4  -8  944.01  172.68
  -4  -4  -8  655.43   51.09
  -4  -4  -8  559.14   47.30
  -4  -4  -8  612.14   50.89
   4   4   8  377.86   93.99
   4   4   8  534.35   45.20
   4   4   8  555.24   48.70
   4   4   8  642.34   49.70
  -5  -4  -8   92.59   22.70
  -5  -4  -8  119.49   26.30
  -5  -4  -8   35.30   31.20
  -5  -4  -8  116.99   22.10
   5   4   8  165.58   76.59
   5   4   8   72.59   18.80
   5   4   8  123.79   26.00
   5   4   8  106.59   22.20
  -6  -4  -8  298.17   33.60
  -6  -4  -8  323.57   31.70
  -6  -4  -8  251.47   50.59
  -6  -4  -8  223.18   37.30
  -6  -4  -8  363.26  110.49
   6   4   8  294.37   45.20
   6   4   8  276.87   43.40
   6   4   8  252.17   30.00
   6   4   8  287.07   47.60
  -7  -4  -8  333.97   53.29
  -7  -4  -8  481.65   44.80
  -7  -4  -8  346.67   54.59
  -7  -4  -8  291.87   97.39
  -7  -4  -8  491.65   46.80
   7   4   8  420.66   41.70
   7   4   8  401.86   43.70
   7   4   8  368.66  126.69
   7   4   8  445.46   64.59
   2  -5  -8  134.19   22.30
   2  -5  -8  104.19   25.50
   2  -5  -8  125.79   34.20
  -2   5   8  189.88   91.49
  -2   5   8  118.79   59.49
  -2   5   8  129.69   33.50
  -2   5   8  106.19   27.70
   1  -5  -8   27.40   15.70
  -1   5   8    2.20    7.20
  -1   5   8    4.80    8.10
  -1   5   8    5.50   25.90
  -1   5   8    9.90   10.00
   0  -5  -8  152.18   26.50
   0  -5  -8  162.68   33.60
   0   5   8  184.48   30.50
   0   5   8   38.20   38.00
   0   5   8  160.88   32.00
   0   5   8  147.49   28.70
  -1  -5  -8   40.60   12.90
  -1  -5  -8   51.49   37.50
  -1  -5  -8   42.70   15.70
   1   5   8   17.70   34.20
   1   5   8   32.40   12.40
   1   5   8   41.00   16.60
  -2  -5  -8    8.30    7.90
  -2  -5  -8   -4.90    9.40
  -2  -5  -8    6.60    7.80
   2   5   8    8.00    9.40
   2   5   8   28.20   31.20
   2   5   8    4.90    7.60
  -3  -5  -8  269.07   48.10
  -3  -5  -8  319.67  102.49
  -3  -5  -8  287.27   30.50
  -3  -5  -8  269.97   40.40
   3   5   8  322.67   33.20
   3   5   8  279.57   96.19
   3   5   8  241.88   37.30
   3   5   8  277.17   32.30
  -4  -5  -8  186.78   71.59
  -4  -5  -8  197.88   37.50
  -4  -5  -8  212.28   36.10
   4   5   8  211.28   33.10
   4   5   8  243.78   84.59
   4   5   8  212.18   32.30
   4   5   8  195.08   31.40
  -5  -5  -8   70.39   53.49
  -5  -5  -8   50.49   15.10
  -5  -5  -8   31.60   14.20
  -5  -5  -8   88.89   23.50
  -5  -5  -8   17.00   10.90
   5   5   8   63.29   18.90
   5   5   8   13.40   12.10
   5   5   8   53.69   16.50
   5   5   8   68.39   56.29
  -6  -5  -8  209.88   38.60
  -6  -5  -8  218.48   36.20
  -6  -5  -8  306.47  106.29
  -6  -5  -8  233.08   39.30
   6   5   8  192.58   34.00
   6   5   8  213.98   33.80
   6   5   8  245.88   40.00
   6   5   8  148.29   73.69
  -7  -5  -8  164.68   36.60
  -7  -5  -8  197.18   31.20
  -7  -5  -8  228.08   39.40
  -7  -5  -8  114.19   63.79
  -7  -5  -8  162.68   37.50
   7   5   8  210.88   41.50
   7   5   8  113.39   25.90
   7   5   8  210.88   35.10
   1  -6  -8   19.90   12.80
  -1   6   8    8.70   13.30
  -1   6   8    0.90   15.50
  -1   6   8    5.20   30.10
  -1   6   8   13.80   12.80
   0  -6  -8  225.08   43.80
   0   6   8  617.14  155.88
   0   6   8  287.97   49.50
   0   6   8  373.36   36.40
   0   6   8  220.18   37.30
  -1  -6  -8  304.17  100.99
  -1  -6  -8  322.67   65.89
  -1  -6  -8  322.17   49.70
   1   6   8  299.57   35.40
   1   6   8  314.57   97.89
   1   6   8  367.06   35.70
   1   6   8  318.57   48.10
  -2  -6  -8   13.80   34.00
  -2  -6  -8   11.10   12.70
  -2  -6  -8   11.00   10.70
   2   6   8   56.89   56.59
   2   6   8   11.80    9.10
   2   6   8    9.80   14.70
   2   6   8    8.40    9.90
  -3  -6  -8   84.99   25.70
  -3  -6  -8  138.79   28.70
  -3  -6  -8  112.29   28.00
  -3  -6  -8  154.48   71.69
   3   6   8  259.67   94.99
   3   6   8  119.69   23.80
   3   6   8  116.59   26.10
  -4  -6  -8   52.39   18.20
  -4  -6  -8   84.69   54.59
  -4  -6  -8   36.80   17.80
  -4  -6  -8   69.99   22.20
   4   6   8   21.00   12.60
   4   6   8   76.49   21.40
   4   6   8   50.99   17.80
   4   6   8   64.99   56.69
  -5  -6  -8   23.70   14.10
  -5  -6  -8   59.49   46.40
  -5  -6  -8   28.50   13.60
  -5  -6  -8    8.40   10.70
  -5  -6  -8   25.70   16.20
   5   6   8   20.10   12.40
   5   6   8    4.90   20.70
   5   6   8   22.80   14.70
   5   6   8    7.40   10.00
  -6  -6  -8  109.49   25.60
  -6  -6  -8  120.79   25.40
  -6  -6  -8  115.89   29.80
  -6  -6  -8  117.29   29.10
  -6  -6  -8  116.09   69.89
   6   6   8   19.80   36.40
   6   6   8  123.59   27.90
   6   6   8   69.09   21.70
  -7  -6  -8   31.80   42.10
  -7  -6  -8   56.99   17.80
  -7  -6  -8   37.60   21.80
  -7  -6  -8   35.80   20.60
  -7  -6  -8   36.90   19.80
   7   6   8   40.80   55.09
   7   6   8    4.30   10.00
   7   6   8   84.29   24.70
   7   6   8   12.80   12.80
   0  -7  -8  505.05   58.69
   0  -7  -8  389.86   45.80
   0   7   8  524.25   46.60
   0   7   8  559.74  181.68
   0   7   8  413.76   44.90
   0   7   8  436.36   65.49
  -1  -7  -8  141.99   35.70
   1   7   8  129.89   29.60
   1   7   8  166.88   29.60
   1   7   8  214.28  103.49
   1   7   8  133.19   35.30
  -2  -7  -8   71.19   57.49
  -2  -7  -8  168.48   37.60
  -2  -7  -8  133.19   31.70
   2   7   8  141.49   26.90
   2   7   8  167.78   91.79
   2   7   8  127.19   27.50
   2   7   8   67.59   22.50
  -3  -7  -8  381.16   41.80
  -3  -7  -8  324.27  101.59
  -3  -7  -8  442.86   48.30
  -3  -7  -8  480.45   53.49
   3   7   8  539.75  147.89
   3   7   8  375.56   40.50
   3   7   8  499.95   45.30
  -4  -7  -8  344.47  109.19
  -4  -7  -8  315.77   54.59
  -4  -7  -8  229.48   43.00
  -4  -7  -8  205.68   37.80
   4   7   8  323.67   36.00
   4   7   8  253.57   46.20
   4   7   8  202.38   87.79
   4   7   8  236.88   37.40
  -5  -7  -8    0.10   19.50
  -5  -7  -8   20.70   19.20
  -5  -7  -8   33.90   18.80
  -5  -7  -8   24.10   13.50
  -5  -7  -8   19.20   15.30
   5   7   8   11.10   10.70
   5   7   8   -3.90   18.00
   5   7   8    4.90    9.30
  -6  -7  -8  198.68   38.90
  -6  -7  -8  142.09   30.80
  -6  -7  -8  232.98   43.30
  -6  -7  -8  192.68   33.70
  -6  -7  -8  177.48   75.89
   6   7   8  189.28   33.70
   6   7   8  108.49   80.29
   6   7   8  223.38   39.10
   6   7   8  219.08   37.50
   2   8   8  550.24   49.80
   2   8   8  483.25   56.69
  -3  -8  -8  426.06   58.19
  -3  -8  -8  501.75   58.09
  -3  -8  -8  550.94  151.68
  -3  -8  -8  417.36   68.59
   3   8   8  351.36   54.39
   3   8   8  569.44  156.28
   3   8   8  534.25   48.00
   3   8   8  382.56   43.30
  -4  -8  -8   35.40   19.60
  -4  -8  -8   52.99   20.80
  -4  -8  -8   65.99   25.30
  -4  -8  -8  194.08   98.69
   4   8   8   91.59   22.80
   4   8   8   49.70   21.70
   4   8   8   64.29   20.70
   4   8   8  134.29   84.69
  -5  -8  -8  238.58   47.30
  -5  -8  -8  217.18   93.99
  -5  -8  -8  391.36   63.29
  -5  -8  -8  198.78   39.40
   5   8   8  227.58   40.20
   5   8   8  316.47   36.80
   5   8   8  199.98   95.59
  -3  -3   9  373.36   42.70
  -2  -3   9   60.79   16.40
  -2  -3   9   53.99   14.00
  -1  -3   9  531.15   41.70
   0  -3   9  440.66   39.90
   1  -3   9   36.10   15.60
  -4  -2   9  206.28   18.70
  -1  -2   9  682.43   45.50
   0  -2   9  155.88   26.20
   1  -2   9  165.48   18.10
   1  -2   9  159.58   15.80
   1  -2   9  175.48   29.90
  -2   2  -9  621.14   70.09
   2  -2   9  598.74   77.89
   2  -2   9  629.84   51.99
   2  -2   9  628.34   41.00
   2  -2   9  520.35   41.00
  -3   2  -9  123.49   45.30
   3  -2   9  183.68   28.00
   3  -2   9  112.39   58.79
   3  -2   9  187.58   33.50
   3  -2   9  157.28   25.20
  -4  -1   9   99.09   16.80
  -4  -1   9  126.09   52.69
  -4  -1   9  101.59   18.80
  -4  -1   9   55.19   31.10
  -3  -1   9   43.90   10.10
  -3  -1   9   61.59   14.60
  -3  -1   9   48.40   22.30
  -2  -1   9  218.48   20.50
  -2  -1   9  240.88   19.00
  -1  -1   9   77.89   13.90
  -1  -1   9   84.49   12.50
   0  -1   9    0.10    3.20
   0  -1   9   11.90    6.40
   0  -1   9   15.60    8.50
  -1   1  -9  528.65   55.49
   1  -1   9  463.65   31.60
   1  -1   9  429.96   37.10
   1  -1   9  341.97   59.39
   1  -1   9  467.65   32.90
  -2   1  -9  514.55   87.89
   2  -1   9  431.86   40.50
   2  -1   9  439.86   40.20
   2  -1   9  431.26   32.70
   2  -1   9  448.26   82.19
  -3   1  -9   16.60   20.90
   3  -1   9   10.80   11.30
   3  -1   9   34.00   28.60
   3  -1   9   31.70   12.20
   3  -1   9   30.10   11.10
  -4   1  -9  178.68   20.30
  -4   1  -9  139.99   23.70
  -4   1  -9  110.49   47.30
   4  -1   9  176.88   34.50
   4  -1   9  194.48   30.80
   4  -1   9  180.98   69.29
   4  -1   9  186.88   30.50
  -4   0   9   71.79   19.20
  -4   0   9   80.69   17.70
  -4   0   9   54.99   32.70
  -4   0   9   29.70   30.10
  -3   0   9    4.20    5.20
  -3   0   9    4.90   12.60
  -3   0   9    2.80   12.70
  -3   0   9   -1.50    3.40
  -2   0   9  100.99   37.70
  -2   0   9   76.79   17.20
  -2   0   9   62.79   33.00
  -2   0   9  105.59   16.80
  -1   0   9  175.08   18.90
  -1   0   9  177.78   52.49
  -1   0   9  182.18   51.69
  -1   0   9  165.78   17.20
   0   0  -9  155.68   41.50
   0   0   9  162.88   17.10
   0   0   9  151.38   21.00
   0   0   9  134.39   20.10
   0   0   9  160.58   42.90
  -1   0  -9  254.77   56.39
   1   0   9  223.58   21.60
   1   0   9  212.18   21.30
   1   0   9  358.86   73.59
   1   0   9  211.78   23.10
   1   0   9  213.78   24.00
  -2   0  -9   67.09   16.80
  -2   0  -9   63.29   30.60
   2   0   9   95.29   21.60
   2   0   9   80.29   16.30
   2   0   9   60.39   15.50
  -3   0  -9   -0.50    5.00
  -3   0  -9    7.30   15.90
  -3   0  -9    2.00    5.50
   3   0   9    6.20    6.30
   3   0   9   17.60   12.30
   3   0   9   10.00   19.50
   3   0   9   14.20   11.40
  -4   0  -9  231.08   23.90
  -4   0  -9  170.28   59.29
  -4   0  -9  175.98   27.40
  -4   0  -9  217.48   35.40
   4   0   9  225.78   38.40
   4   0   9  220.18   26.00
   4   0   9  130.69   61.09
   4   0   9  181.08   31.00
  -5   0  -9  110.69   58.29
  -5   0  -9   96.99   19.70
  -5   0  -9   91.89   26.70
  -5   0  -9   93.19   26.80
   5   0   9   99.49   25.20
   5   0   9  102.39   26.70
   5   0   9   64.69   49.60
   5   0   9   96.09   22.50
   4  -1  -9   75.19   19.00
   4  -1  -9   66.19   15.00
  -4   1   9   74.99   47.50
  -4   1   9   32.50   13.70
  -4   1   9   13.60   18.30
  -4   1   9   58.79   16.30
   3  -1  -9    3.50    4.50
   3  -1  -9   14.40    8.30
  -3   1   9   26.80   11.60
  -3   1   9    4.90   17.40
  -3   1   9    4.00   12.10
  -3   1   9    6.40    7.00
   2  -1  -9  213.48   21.30
   2  -1  -9  241.08   22.60
  -2   1   9  227.48   26.50
  -2   1   9  256.37   24.70
  -2   1   9  246.18   74.79
   1  -1  -9  230.88   20.30
  -1   1   9  207.48   68.99
  -1   1   9  214.58   21.60
  -1   1   9  191.58   22.90
   0  -1  -9    4.80   10.80
   0  -1  -9    0.00    3.70
   0   1   9    3.20    5.00
   0   1   9   11.50    7.50
  -1  -1  -9  111.79   17.00
  -1  -1  -9   94.39   17.10
  -1  -1  -9   96.39   37.60
  -1  -1  -9  125.39   18.70
   1   1   9  130.19   21.40
   1   1   9  103.89   21.40
   1   1   9  125.59   20.70
  -2  -1  -9  258.57   26.50
  -2  -1  -9  254.47   25.00
  -2  -1  -9  335.77   78.89
   2   1   9  297.97   27.30
   2   1   9  251.07   27.30
   2   1   9  285.17   27.10
   2   1   9  240.08   34.00
  -3  -1  -9   12.50   18.20
  -3  -1  -9   10.60    7.40
  -3  -1  -9   22.40    9.70
   3   1   9   17.10   11.40
   3   1   9   31.70   12.70
   3   1   9    6.10    6.80
   3   1   9   10.80   18.10
   3   1   9   10.20    8.30
  -4  -1  -9  118.69   21.30
  -4  -1  -9   85.09   20.70
  -4  -1  -9  143.59   57.29
  -4  -1  -9  140.79   35.90
   4   1   9  146.79   27.70
   4   1   9  128.29   61.99
   4   1   9  134.89   24.90
   4   1   9  135.59   29.30
  -5  -1  -9   36.70   17.40
  -5  -1  -9   68.49   22.70
  -5  -1  -9   49.70   37.70
  -5  -1  -9   74.19   24.20
   5   1   9   77.89   23.90
   5   1   9   76.59   22.70
   5   1   9   49.10   16.50
   5   1   9   79.29   55.29
   4  -2  -9   72.79   26.40
  -4   2   9   83.99   43.30
  -4   2   9   93.79   22.10
  -4   2   9  106.59   27.20
   3  -2  -9  170.08   26.30
   3  -2  -9  104.39   30.50
  -3   2   9  165.68   55.69
  -3   2   9  202.18   29.90
  -3   2   9  175.08   32.80
  -3   2   9  247.68   99.79
   2  -2  -9  757.12   52.69
   2  -2  -9  891.41   58.49
  -2   2   9  830.32  104.59
  -2   2   9  790.42   59.79
  -2   2   9  794.22  160.68
  -2   2   9  753.52   54.19
   1  -2  -9  118.89   22.00
  -1   2   9  146.89   22.80
  -1   2   9  146.29   26.60
   0  -2  -9  111.69   47.40
   0  -2  -9  101.19   20.20
   0   2   9   93.59   21.10
   0   2   9   63.09   14.50
  -1  -2  -9  576.64   42.70
  -1  -2  -9  651.13   86.59
  -1  -2  -9  498.15   36.40
   1   2   9  614.54   43.70
   1   2   9  563.54   41.40
   1   2   9  517.75   48.70
  -2  -2  -9  578.64   44.40
  -2  -2  -9  661.33  115.79
  -2  -2  -9  523.55   40.60
   2   2   9  592.44   43.80
   2   2   9  530.15   44.80
   2   2   9  606.84   44.00
   2   2   9  578.84   44.80
  -3  -2  -9    0.20    9.60
  -3  -2  -9   10.90   10.70
   3   2   9   26.20   11.00
   3   2   9   -1.30    6.00
   3   2   9    8.70    7.10
   3   2   9    4.50    6.40
  -4  -2  -9  159.78   73.09
  -4  -2  -9  186.08   29.30
   4   2   9  184.08   30.20
   4   2   9  183.38   26.80
   4   2   9  199.98   81.39
   4   2   9  186.18   33.30
   4   2   9  128.19   25.60
  -5  -2  -9   78.49   22.30
  -5  -2  -9   59.09   44.00
  -5  -2  -9   75.79   23.70
  -5  -2  -9   73.99   18.20
   5   2   9   74.89   17.50
   5   2   9   72.19   20.70
   5   2   9   87.79   21.90
   5   2   9   89.69   25.90
   5   2   9   44.50   44.00
  -6  -2  -9   10.00   12.60
  -6  -2  -9    9.80    8.40
  -6  -2  -9   12.80   14.50
  -6  -2  -9   11.30   30.20
   6   2   9    2.90    7.90
   6   2   9   11.50   11.70
   6   2   9    8.30   12.10
   6   2   9    6.10   23.90
   3  -3  -9  540.45   46.90
   3  -3  -9  698.83   58.39
  -3   3   9  770.82  145.69
  -3   3   9  702.43   59.99
  -3   3   9  715.93  177.78
  -3   3   9  688.33   53.19
   2  -3  -9  735.73   53.79
   2  -3  -9  887.81   64.79
  -2   3   9  766.52   64.49
  -2   3   9  767.82   87.99
  -2   3   9  617.34  147.09
  -2   3   9  878.11  116.29
  -1   3   9   22.80   37.50
  -1   3   9  172.48   71.59
  -1   3   9  133.69   24.10
  -1   3   9  147.89   30.50
   0  -3  -9  715.63  128.69
   0  -3  -9  577.14   47.60
   0   3   9  569.94   44.20
   0   3   9  507.45   47.70
   0   3   9  610.34   48.60
  -1  -3  -9  779.12  135.89
  -1  -3  -9  995.90   66.29
  -1  -3  -9  905.01   53.99
   1   3   9 1003.10  125.59
   1   3   9  817.52   63.59
   1   3   9  978.10   62.19
   1   3   9 1013.00   64.79
  -2  -3  -9  119.79   47.20
  -2  -3  -9  125.29   20.50
  -2  -3  -9  116.29   23.90
   2   3   9  123.29   24.60
   2   3   9  111.99   23.00
   2   3   9  107.49   21.20
   2   3   9   94.09   45.40
  -3  -3  -9  107.59   21.50
  -3  -3  -9   98.89   22.20
  -3  -3  -9  121.79   57.49
  -3  -3  -9  100.99   22.70
   3   3   9  122.29   23.40
   3   3   9  117.59   23.30
   3   3   9  107.59   25.00
   3   3   9  101.39   21.70
  -4  -3  -9  656.13   52.59
  -4  -3  -9  593.84   49.90
  -4  -3  -9  600.04  120.39
   4   3   9  651.03   49.99
   4   3   9  760.22   56.09
   4   3   9  760.12   59.59
  -5  -3  -9  206.28   33.80
  -5  -3  -9  220.48   89.59
  -5  -3  -9  209.88   35.60
  -5  -3  -9  216.38   36.10
   5   3   9  226.28   35.40
   5   3   9  212.38   37.80
   5   3   9  225.68   26.70
   5   3   9  246.88   42.30
   5   3   9  266.87   93.59
  -6  -3  -9   52.79   45.60
  -6  -3  -9   35.50   14.60
   6   3   9   58.59   23.00
   6   3   9   22.90   15.00
   6   3   9   59.99   20.00
   6   3   9   36.80   13.70
   6   3   9   -4.50   18.00
   3  -4  -9 1140.89   85.99
  -3   4   9 1071.99   75.19
  -3   4   9  989.80  217.98
  -3   4   9  989.30   82.79
   2  -4  -9  170.48   34.10
   2  -4  -9  233.98   39.60
  -2   4   9  190.58   30.40
  -2   4   9  309.17  127.39
  -2   4   9  148.49   31.30
  -2   4   9   87.39   48.10
   1  -4  -9   70.89   19.30
  -1   4   9   74.59   21.00
  -1   4   9  203.28   94.69
  -1   4   9   86.49   54.49
  -1   4   9   78.29   22.30
  -1   4   9   75.09   19.30
   0  -4  -9 1485.65  165.48
   0  -4  -9 1688.03  102.89
   0  -4  -9 1651.53   82.79
   0  -4  -9 1457.65   91.49
   0   4   9 1533.25   98.59
   0   4   9 1573.84   93.29
  -1  -4  -9 1336.97   73.19
  -1  -4  -9 1160.48   79.39
  -1  -4  -9 1374.96   88.19
  -1  -4  -9 1484.05  157.68
   1   4   9 1404.16  157.88
   1   4   9 1212.88   78.59
   1   4   9 1283.27   83.99
  -2  -4  -9   25.40   13.70
  -2  -4  -9   15.00   22.70
  -2  -4  -9   11.20    9.90
  -2  -4  -9   20.10   10.40
   2   4   9   13.60    9.80
   2   4   9   28.20   11.10
   2   4   9   23.90   11.90
   2   4   9    1.70   16.20
  -3  -4  -9  765.72   59.89
  -3  -4  -9  707.73   55.59
  -3  -4  -9  531.85  109.29
   3   4   9  660.63   54.29
   3   4   9  739.53   55.69
   3   4   9  726.33   54.49
   3   4   9  909.21  168.28
  -4  -4  -9 1121.59   74.69
  -4  -4  -9 1041.30   72.49
  -4  -4  -9  956.60  171.68
   4   4   9  858.51   66.49
   4   4   9 1049.00   71.39
   4   4   9 1087.29   73.39
  -5  -4  -9   28.60   12.50
  -5  -4  -9    4.20   20.50
  -5  -4  -9    7.50   10.30
  -5  -4  -9   13.20   15.00
   5   4   9   23.40   12.40
   5   4   9   26.80   11.90
   5   4   9   10.20    9.20
   5   4   9   -0.40   12.20
  -6  -4  -9  324.07   47.10
  -6  -4  -9  415.66   41.30
  -6  -4  -9  384.76   44.80
  -6  -4  -9  303.17   93.39
  -6  -4  -9  410.16   38.50
   6   4   9  386.96   59.09
   6   4   9  349.37   40.80
   6   4   9  424.46  139.89
  -7  -4  -9  226.98   83.59
  -7  -4  -9  250.77   61.49
  -7  -4  -9  200.88   42.10
  -7  -4  -9  407.46   38.50
  -7  -4  -9  399.96   42.00
   7   4   9  441.26   49.00
   7   4   9  322.47  118.09
   7   4   9  333.67   38.70
   7   4   9  382.86   59.29
   7   4   9  362.46   43.10
   2  -5  -9   14.80   14.40
   2  -5  -9   -1.00    7.30
  -2   5   9   -7.80   13.20
  -2   5   9   -5.20   21.20
  -2   5   9    8.30    9.60
  -2   5   9    0.40    9.80
  -2   5   9    6.50   11.10
   1  -5  -9 1316.97   69.19
   1  -5  -9 1046.30   75.59
  -1   5   9 1048.70   84.79
  -1   5   9  958.20  190.38
  -1   5   9 1188.48   88.79
  -1   5   9 1205.98  155.68
   0  -5  -9 1520.65   95.99
   0  -5  -9 1664.03   88.69
   0   5   9 1814.42  339.27
   0   5   9 1618.14   96.19
   0   5   9 1399.16   98.19
   0   5   9 1616.44  103.99
  -1  -5  -9    3.50    7.80
  -1  -5  -9    9.30   26.00
  -1  -5  -9    8.40    7.90
  -1  -5  -9   21.60   11.00
   1   5   9    1.00    5.80
   1   5   9   11.40   24.00
   1   5   9    9.50    7.80
   1   5   9   11.50   10.50
  -2  -5  -9  940.81   71.79
  -2  -5  -9  847.02   64.89
  -2  -5  -9  836.92   58.09
  -2  -5  -9 1215.78  203.38
   2   5   9  730.13   62.39
   2   5   9  888.31   62.89
   2   5   9 1119.69  191.08
  -3  -5  -9 1892.21  110.19
  -3  -5  -9 2050.59  125.49
  -3  -5  -9 2004.70  203.58
  -3  -5  -9 1956.40  117.99
   3   5   9 2068.99  210.48
   3   5   9 2173.38  117.09
   3   5   9 1734.83  112.69
   3   5   9 1935.71  115.49
  -4  -5  -9  650.23  147.49
  -4  -5  -9  609.54   54.79
  -4  -5  -9  603.94   52.69
   4   5   9  598.64   50.29
   4   5   9  632.04  151.38
   4   5   9  473.35   46.80
   4   5   9  499.45   50.89
  -5  -5  -9  237.18   37.10
  -5  -5  -9  258.97   39.60
  -5  -5  -9  270.57   83.49
   5   5   9  251.07   31.50
   5   5   9  317.87   47.30
   5   5   9  238.78   41.80
  -6  -5  -9 1424.26   86.99
  -6  -5  -9 1238.78   92.49
  -6  -5  -9 1037.70  176.58
  -6  -5  -9 1384.46   91.29
   6   5   9 1183.98   86.09
   6   5   9 1239.88   85.79
   6   5   9 1366.06   92.89
  -7  -5  -9  733.73  177.68
  -7  -5  -9  565.54  102.59
  -7  -5  -9  548.25   61.59
  -7  -5  -9  701.13   59.69
  -7  -5  -9  764.52   57.69
   7   5   9  724.43   63.49
   7   5   9  393.66  137.29
   7   5   9  549.54   65.69
   7   5   9  498.45   54.09
   1  -6  -9 1199.58   85.89
  -1   6   9 1077.49  211.48
  -1   6   9 1024.50  184.38
  -1   6   9 1163.78   88.59
  -1   6   9 1237.88   96.49
  -1   6   9 1438.96   87.59
   0  -6  -9  298.17   53.99
   0  -6  -9  200.18   31.90
   0  -6  -9  138.79   30.60
   0   6   9  285.07   41.70
   0   6   9  169.38   36.30
  -1  -6  -9  295.47   32.10
  -1  -6  -9  256.27   40.60
  -1  -6  -9  302.57  102.89
  -1  -6  -9  327.07   53.29
   1   6   9  322.87   48.80
   1   6   9  234.88   38.10
   1   6   9  324.67   35.10
  -2  -6  -9 2935.11  262.37
  -2  -6  -9 2646.64  154.68
  -2  -6  -9 2852.11  164.48
   2   6   9 2435.96  150.08
   2   6   9 2820.52  265.87
   2   6   9 2828.82  157.88
   2   6   9 2890.21  152.38
  -3  -6  -9 1321.67   90.39
  -3  -6  -9 1413.36   96.69
   3   6   9 1367.26   86.19
   3   6   9 1300.47   87.99
   3   6   9 1062.99   81.49
   3   6   9  893.91  175.28
  -4  -6  -9  155.58   47.70
  -4  -6  -9  324.37  107.19
  -4  -6  -9  252.97   46.10
  -4  -6  -9  167.98   35.10
   4   6   9  175.68   32.50
   4   6   9  183.58   35.40
   4   6   9   90.19   62.09
   4   6   9  181.68   35.10
  -5  -6  -9 1211.08   85.29
  -5  -6  -9 1203.08  105.69
  -5  -6  -9  856.81  164.48
   5   6   9 1192.18   84.49
   5   6   9 1260.97   87.69
   5   6   9 1491.35  195.58
   5   6   9 1424.66   90.29
  -6  -6  -9 1562.04   96.99
  -6  -6  -9 1363.56   97.59
  -6  -6  -9 1322.97  241.28
  -6  -6  -9 1467.15  103.99
   6   6   9 1517.05  100.89
   6   6   9 1433.46  105.99
  -1  -7  -9 1190.78   91.99
  -1  -7  -9  866.21   73.79
   1   7   9  814.62   71.79
   1   7   9 1105.29   75.79
   1   7   9 1046.50   82.89
  -2  -7  -9  994.10  172.28
  -2  -7  -9 1036.30   81.89
  -2  -7  -9 1087.49  108.09
  -2  -7  -9 1225.18   93.59
   2   7   9 1137.29   85.89
   2   7   9 1004.50  212.38
   2   7   9  960.60   77.09
   2   7   9 1213.38   80.39
  -3  -7  -9    7.20    9.40
  -3  -7  -9   -0.10   22.20
  -3  -7  -9   15.80   16.20
  -3  -7  -9    4.70   11.30
   3   7   9    3.90   22.80
   3   7   9    3.30    9.80
   3   7   9   27.20   14.30
   3   7   9    3.60    8.60
  -4  -7  -9 1233.58   92.79
  -4  -7  -9 1208.28   95.69
  -4  -7  -9 1150.68  202.78
  -4  -7  -9 1076.49   79.59
   4   7   9 1184.08   81.59
   4   7   9  971.00   77.09
   4   7   9  860.41  180.48
   4   7   9  991.10   80.79
  -5  -7  -9 1767.92  117.09
  -5  -7  -9 1583.44  128.79
  -5  -7  -9 1890.41  123.79
  -5  -7  -9 1644.54  210.18
   5   7   9 1752.62  225.18
   5   7   9 1855.41  112.59
   5   7   9 1563.64  111.39
   5   7   9 1561.74  107.19
  -6  -7  -9  346.57   39.50
  -6  -7  -9  478.15  152.48
  -6  -7  -9  369.76   59.19
  -6  -7  -9  277.97   48.20
  -6  -7  -9  224.68   40.70
   6   7   9  211.38   41.00
   6   7   9  378.26   42.20
  -1  -2  10  531.45   38.60
   0  -2  10  174.68   27.60
   1  -2  10    7.60    8.70
  -3  -1  10    5.70    6.10
  -3  -1  10    6.90    5.40
   0  -1  10  146.49   14.90
   0  -1  10  128.29   21.60
   1  -1  10  327.77   26.70
   1  -1  10  336.87   32.40
   1  -1  10  307.07   25.10
  -2   1 -10  496.05   66.09
   2  -1  10  531.25   38.20
   2  -1  10  440.06   81.99
   2  -1  10  538.65   40.30
   2  -1  10  544.45   46.60
  -3   1 -10   75.59   35.80
   3  -1  10  106.99   22.50
   3  -1  10   96.19   20.40
   3  -1  10  147.09   60.79
   3  -1  10   86.79   22.00
  -3   0  10  607.34  126.89
  -3   0  10  559.64   45.40
  -3   0  10  664.63  111.39
  -3   0  10  638.44   43.20
  -2   0  10 1251.87  117.99
  -2   0  10 1104.19   72.19
  -2   0  10 1337.27  112.99
  -2   0  10 1388.96   71.69
  -1   0  10  530.55   36.50
  -1   0  10  496.35   65.89
  -1   0  10  414.96   39.00
  -1   0  10  501.25   61.89
   0   0  10  289.47   59.09
   0   0  10  325.07   26.50
   0   0  10  321.07   27.90
   0   0  10  348.67   27.90
  -1   0 -10 1444.06  118.29
   1   0  10 1515.05  128.49
   1   0  10 1584.14   86.49
   1   0  10 1552.34   87.59
   1   0  10 1594.54   82.69
   1   0  10 1380.26   86.79
  -2   0 -10  783.62   90.19
   2   0  10  737.73   94.49
   2   0  10  682.93   48.50
   2   0  10  733.73   48.30
   2   0  10  720.73   54.39
  -3   0 -10    4.20    5.40
  -3   0 -10    1.90   10.20
  -3   0 -10    0.80    6.80
   3   0  10    2.90   18.30
   3   0  10    8.80    7.90
   3   0  10    7.90    9.30
   3   0  10   -2.20    5.30
  -4   0 -10  441.56   72.29
  -4   0 -10  615.74   56.19
  -4   0 -10  479.25   39.80
  -4   0 -10  598.34  115.19
   4   0  10  385.76   98.39
   4   0  10  548.95   47.80
   4   0  10  581.64   46.10
   4   0  10  679.83   57.39
   3  -1 -10 1386.16   73.09
   3  -1 -10 1158.88   69.19
  -3   1  10 1108.59  126.19
  -3   1  10 1308.07   76.09
  -3   1  10 1116.39   78.69
  -3   1  10 1216.98  148.19
   2  -1 -10  737.83   46.40
  -2   1  10  768.42   95.79
  -2   1  10  747.33   55.49
  -2   1  10  837.72   53.19
  -2   1  10  796.62  142.89
  -1   1  10   62.99   42.70
  -1   1  10   34.20   12.30
  -1   1  10   11.60   17.00
  -1   1  10   42.90   17.40
   0  -1 -10 1788.52  140.49
   0   1  10 1588.04   88.99
   0   1  10 1233.08  129.09
   0   1  10 1723.33   88.59
  -1  -1 -10 1650.53  138.09
  -1  -1 -10 1529.15   83.79
   1   1  10 1500.05   86.99
   1   1  10 1616.94   86.09
   1   1  10 1418.66   90.69
   1   1  10 1633.94   87.69
  -2  -1 -10   67.09   37.10
  -2  -1 -10   79.99   15.60
  -2  -1 -10   62.19   13.80
   2   1  10   20.30   21.80
   2   1  10   69.29   17.90
   2   1  10   86.29   19.00
   2   1  10   65.29   17.20
  -3  -1 -10  964.00  115.19
  -3  -1 -10  959.10   60.09
  -3  -1 -10  924.51   57.89
   3   1  10  779.12   57.19
   3   1  10  998.60   68.69
   3   1  10  911.11   62.69
   3   1  10  962.80  124.29
   3   1  10 1011.40   62.69
  -4  -1 -10 1620.44  165.98
  -4  -1 -10 1736.23   95.99
  -4  -1 -10 1617.04  100.89
  -4  -1 -10 1639.14  102.89
   4   1  10 1725.13  188.68
   4   1  10 1795.82  109.39
   4   1  10 1611.14  101.09
   4   1  10 1699.83   99.09
  -5  -1 -10  344.37   98.29
  -5  -1 -10  351.86   34.60
  -5  -1 -10  342.07   49.80
  -5  -1 -10  272.37   57.79
   5   1  10  270.87   97.49
   5   1  10  387.46   52.59
   5   1  10  376.86   41.30
   5   1  10  337.47   37.70
   3  -2 -10 1030.50   67.89
   3  -2 -10  951.80   63.19
  -3   2  10 1033.90   67.69
  -3   2  10  909.91   70.89
  -3   2  10  833.42  227.08
  -3   2  10  767.42  133.39
   2  -2 -10   62.19   17.10
   2  -2 -10   55.29   15.00
  -2   2  10   57.49   41.00
  -2   2  10   45.60   16.10
  -2   2  10   65.29   16.80
  -2   2  10  124.29   58.79
   1  -2 -10 1071.59   72.19
   1  -2 -10 1358.56   77.19
  -1   2  10 1406.16   82.89
  -1   2  10 1385.86  159.58
  -1   2  10 1373.66  140.29
   0  -2 -10 2521.55  195.18
   0  -2 -10 2457.15  125.09
   0  -2 -10 2218.28  121.49
   0   2  10 2411.86  125.19
   0   2  10 2403.36  127.89
   0   2  10 2422.66  196.28
  -1  -2 -10  574.94   40.90
  -1  -2 -10  567.14   42.80
  -1  -2 -10  814.42  129.89
  -1  -2 -10  672.03   46.90
   1   2  10  721.13   48.10
   1   2  10  612.04   51.09
   1   2  10  724.83   49.30
   1   2  10  623.44  112.49
  -2  -2 -10  695.63   47.70
  -2  -2 -10  656.33   48.30
  -2  -2 -10  580.04   44.40
  -2  -2 -10  785.52  101.89
   2   2  10  719.03   49.40
   2   2  10  582.74   50.19
   2   2  10  642.84   49.70
   2   2  10  580.64  108.49
   2   2  10  737.73   50.09
  -3  -2 -10 1979.20  109.89
  -3  -2 -10 2039.10  185.38
  -3  -2 -10 2032.40  112.59
   3   2  10 1700.63  108.89
   3   2  10 2045.30  117.39
   3   2  10 2135.89  112.99
   3   2  10 2205.18  119.79
   3   2  10 2124.19  199.78
  -4  -2 -10  867.91   87.79
  -4  -2 -10  814.82   59.99
  -4  -2 -10  699.33  132.99
   4   2  10  948.61   62.89
   4   2  10  666.33   58.09
   4   2  10  931.71   69.29
   4   2  10  987.10   66.19
   4   2  10  730.83  143.09
  -5  -2 -10   -3.50   12.80
  -5  -2 -10   29.90   14.10
  -5  -2 -10    0.60    7.40
  -5  -2 -10    2.40    9.40
   5   2  10   28.60   14.30
   5   2  10   12.30   10.50
   5   2  10   17.10   29.90
   5   2  10    6.80    7.50
   5   2  10    4.80   11.90
   3  -3 -10  218.08   37.00
   3  -3 -10  218.18   35.90
  -3   3  10  220.88   80.79
  -3   3  10  221.58   42.40
  -3   3  10  182.38   30.20
   2  -3 -10  276.87   33.30
   2  -3 -10  441.76   41.90
  -2   3  10  224.18   96.69
  -2   3  10  338.27   34.30
  -2   3  10  325.07   90.29
  -2   3  10  425.16   85.29
   1  -3 -10 1326.17   87.59
   1  -3 -10 1817.92  101.79
  -1   3  10 1453.85  182.48
  -1   3  10 1581.54  170.88
  -1   3  10 1627.64   98.29
  -1   3  10 1535.95   91.69
   0  -3 -10  847.52   62.59
   0  -3 -10 1228.38  135.69
   0   3  10 1016.50   64.69
   0   3  10 1056.09  128.09
   0   3  10  889.61   65.69
  -1  -3 -10   80.89   14.80
  -1  -3 -10   71.99   22.10
  -1  -3 -10   23.50   44.00
   1   3  10   51.39   14.70
   1   3  10   76.99   19.40
   1   3  10   71.69   53.99
   1   3  10   58.69   18.90
  -2  -3 -10 2081.89  114.79
  -2  -3 -10 1921.71  104.79
   2   3  10 2049.09  110.59
   2   3  10 1832.52  114.09
   2   3  10 1976.90  110.89
  -3  -3 -10 1829.22  106.69
  -3  -3 -10 1850.71  111.59
  -3  -3 -10 2107.49  197.98
   3   3  10 2317.37  211.18
   3   3  10 2026.80  110.59
   3   3  10 1899.91  109.29
   3   3  10 1783.92  110.09
  -4  -3 -10   93.39   22.50
  -4  -3 -10  108.49   57.89
  -4  -3 -10  106.59   23.20
  -4  -3 -10  100.69   23.30
   4   3  10   71.59   19.00
   4   3  10  109.19   26.30
   4   3  10   27.60   35.60
  -5  -3 -10  904.21   93.49
  -5  -3 -10 1140.09  193.98
  -5  -3 -10  957.00   72.49
  -5  -3 -10  858.91   65.59
   5   3  10  744.73  160.38
   5   3  10 1046.40   71.29
   5   3  10 1033.30   73.29
   5   3  10  977.70   76.19
   5   3  10  859.71   63.69
  -6  -3 -10 1148.09   94.19
  -6  -3 -10 1291.57   94.99
  -6  -3 -10 1573.14  193.18
  -6  -3 -10 1289.77   86.29
   6   3  10 1361.96   90.89
   6   3  10 1396.86   94.99
   6   3  10 1222.48   81.09
   6   3  10 1344.77   99.09
   6   3  10 1561.24  365.96
   2  -4 -10  926.01   72.19
   2  -4 -10  736.03   59.49
  -2   4  10  875.81  172.68
  -2   4  10  739.73   67.19
  -2   4  10  872.21   63.19
   1  -4 -10  875.91   65.29
  -1   4  10  787.42  142.19
  -1   4  10  925.91   70.69
  -1   4  10  774.42   79.59
  -1   4  10 1031.80  216.88
  -1   4  10  962.90   66.59
   0  -4 -10    7.60    9.10
   0  -4 -10    4.50    6.90
   0   4  10   24.70   15.00
   0   4  10   30.20   15.70
   0   4  10   39.80   18.30
   0   4  10   22.40   33.80
  -1  -4 -10  866.21   64.79
  -1  -4 -10  782.22   49.60
  -1  -4 -10  741.33   58.39
   1   4  10  975.50  232.78
   1   4  10  815.22   57.89
   1   4  10  704.63   60.89
   1   4  10  828.42   61.49
  -2  -4 -10 1914.01  117.29
  -2  -4 -10 1916.11  105.29
  -2  -4 -10 2302.27  206.18
   2   4  10 1788.62  116.09
   2   4  10 2108.49  113.79
   2   4  10 2027.00  114.89
  -3  -4 -10  269.87   81.59
  -3  -4 -10  315.77   46.70
  -3  -4 -10  327.97   33.00
  -3  -4 -10  486.85   45.10
   3   4  10  414.16   37.90
   3   4  10  320.37   37.10
   3   4  10  345.67   36.90
  -4  -4 -10  455.75  112.09
  -4  -4 -10  573.54   50.89
  -4  -4 -10  479.05   46.70
   4   4  10  550.14   48.10
   4   4  10  426.16  114.09
   4   4  10  484.35   45.80
   4   4  10  672.53   51.99
  -5  -4 -10 1059.59   79.09
  -5  -4 -10 1118.39   78.79
  -5  -4 -10 1036.70   77.49
  -5  -4 -10 1157.98  155.38
   5   4  10 1125.59   79.19
   5   4  10 1278.47  220.58
   5   4  10 1191.58   81.49
  -6  -4 -10  602.74   58.79
  -6  -4 -10  544.75   57.29
  -6  -4 -10  944.31  193.58
   6   4  10  310.17  103.29
   6   4  10  629.64   53.69
   6   4  10  749.42   68.99
   6   4  10  639.64   57.79
   6   4  10  799.72   63.69
   1  -5 -10   83.49   24.00
  -1   5  10   70.99   23.40
  -1   5  10   38.70   36.50
  -1   5  10  114.89   32.40
  -1   5  10  105.59   24.20
  -1   5  10   52.49   54.59
   0  -5 -10  247.88   42.60
   0  -5 -10  220.28   23.00
   0  -5 -10  189.38   33.60
   0   5  10  213.88   35.40
   0   5  10  168.58   35.30
   0   5  10  134.59   78.49
  -1  -5 -10  868.51   68.49
  -1  -5 -10  610.84   55.59
  -1  -5 -10 1061.09  194.88
  -1  -5 -10  772.52   50.99
   1   5  10  668.23   65.09
   1   5  10  690.73   59.39
   1   5  10  801.42  169.48
  -2  -5 -10  357.76   41.40
  -2  -5 -10  273.87   43.00
  -2  -5 -10  287.77   92.09
   2   5  10  366.16   38.90
   2   5  10  342.27   35.60
   2   5  10  282.57   36.10
  -3  -5 -10   43.50   18.40
  -3  -5 -10   19.40   32.60
  -3  -5 -10   57.89   21.00
   3   5  10   67.89   19.80
   3   5  10   96.89   23.20
   3   5  10   69.69   22.40
  -4  -5 -10 1278.87  102.19
  -4  -5 -10 1148.79   77.89
  -4  -5 -10 1109.19   81.19
  -4  -5 -10  859.91  179.68
   4   5  10 1347.67   83.59
   4   5  10 1210.88   81.79
   4   5  10 1042.90   78.59
  -5  -5 -10  804.52  157.68
  -5  -5 -10  794.22   67.29
  -5  -5 -10  801.62   67.09
  -5  -5 -10  857.81   65.59
   5   5  10  783.92   63.79
   5   5  10  877.41   67.59
   5   5  10  859.61  184.78
  -6  -5 -10   -6.40   14.40
  -6  -5 -10   -0.30    6.40
  -6  -5 -10    9.60   13.00
  -6  -5 -10    1.30   10.50
   6   5  10   -1.00    6.90
   6   5  10   -7.30   16.90
   6   5  10    0.80    9.10
   6   5  10   -3.30    5.20
   0  -6 -10  131.79   29.80
   0  -6 -10   70.99   23.60
   0  -6 -10  112.89   31.90
   0   6  10   42.30   20.80
   0   6  10   86.79   27.30
   0   6  10  100.29   59.99
   0   6  10  136.09   27.80
  -1  -6 -10  265.77   36.50
  -1  -6 -10  206.08   36.40
  -1  -6 -10  440.36  133.39
  -1  -6 -10  371.46   58.09
   1   6  10  176.78   37.70
   1   6  10  253.87   96.99
   1   6  10  347.37   50.39
   1   6  10  286.87   49.70
  -2  -6 -10   21.10   16.40
  -2  -6 -10  -10.70   15.30
  -2  -6 -10    7.10    9.70
   2   6  10    1.40    6.70
   2   6  10   37.70   17.90
  -3  -6 -10  182.88   39.10
  -3  -6 -10  136.89   27.90
  -3  -6 -10  159.68   73.39
  -3  -6 -10   88.39   25.00
   3   6  10  121.79   28.50
   3   6  10  188.58   35.20
   3   6  10  164.48   33.50
  -4  -6 -10  536.45   54.89
  -4  -6 -10  378.76   46.40
  -4  -6 -10  537.15  137.69
  -4  -6 -10  404.96   43.20
   4   6  10  567.64   50.19
   4   6  10  526.65   49.99
   4   6  10  443.26   56.49
  -5  -6 -10  170.78   36.90
  -5  -6 -10  100.29   25.80
  -5  -6 -10  108.99   27.90
   5   6  10   74.09   59.39
   5   6  10  189.38   39.80
   5   6  10   77.99   23.20
   5   6  10   72.39   22.90
  -6  -6 -10  213.48   38.20
  -6  -6 -10  156.58   34.50
  -6  -6 -10  167.18   34.80
  -6  -6 -10  165.48   71.39
   6   6  10  303.57  123.49
   6   6  10  310.07   44.70
   6   6  10  205.88   37.50
   6   6  10  157.28   35.20
  -2  -7 -10    1.00    9.90
  -2  -7 -10    4.80   26.00
  -2  -7 -10   -0.80    8.50
   2   7  10    4.60   13.90
   2   7  10   -4.40   18.00
   2   7  10    3.50   11.30
  -3  -7 -10  199.18   43.10
  -3  -7 -10  128.29   27.70
  -3  -7 -10  212.18  103.39
  -3  -7 -10  164.68   36.00
   3   7  10  192.88   34.00
   3   7  10   92.59   26.30
   3   7  10  144.39   32.80
  -4  -7 -10  161.48   37.80
  -4  -7 -10  259.97  105.09
  -4  -7 -10  161.48   32.10
  -4  -7 -10  223.48   45.20
   4   7  10  230.48   38.80
   4   7  10  155.68   35.60
   4   7  10  131.99   31.30
  -5  -7 -10    2.60   10.50
  -5  -7 -10    5.60   26.50
  -5  -7 -10   47.00   34.30
  -5  -7 -10   33.20   20.10
   5   7  10   35.30   18.50
   5   7  10   16.40   15.20
   0  -1  11 1207.98   72.09
   1  -1  11  581.24   48.70
   1  -1  11  684.43   43.20
   1  -1  11  646.74   41.60
  -2   0  11   -0.30    9.30
  -2   0  11   13.90   18.50
  -2   0  11   16.90    8.60
  -2   0  11   27.90   10.60
  -1   0  11  749.62   83.59
  -1   0  11  884.81   52.39
  -1   0  11  922.11   54.99
   0   0  11  577.54   39.10
   0   0  11  434.86   58.89
   0   0  11  576.14   38.60
  -1   0 -11   15.80   18.20
   1   0  11   26.60    9.70
   1   0  11   -6.60    8.70
   1   0  11    5.60    6.20
   1   0  11   15.80   10.50
   1   0  11   10.30    9.90
   2   0  11  347.67   35.90
   2   0  11  381.96   32.70
   2   0  11  348.57   76.99
   2   0  11  363.26   31.90
  -3   0 -11  936.71  111.99
   3   0  11  923.91   64.09
   3   0  11  971.00   62.89
   3   0  11 1000.90  124.69
   3   0  11  988.30   72.29
  -2   1  11  104.49   22.50
  -2   1  11   77.29   38.10
  -2   1  11  102.59   19.60
  -1   1  11  328.97   29.40
  -1   1  11  427.86   84.39
  -1   1  11  328.57   31.50
  -1   1  11  401.26  150.98
   0   1  11   81.89   41.60
   0   1  11   95.19   18.00
   0   1  11  114.19   21.40
  -1  -1 -11  209.28   53.89
   1   1  11  141.89   50.69
   1   1  11  188.38   30.50
   1   1  11  201.18   28.90
   1   1  11  154.88   23.90
   1   1  11  194.68   22.30
  -2  -1 -11  525.55   48.50
  -2  -1 -11  660.53  111.59
   2   1  11  551.24   46.60
   2   1  11  537.85   46.40
   2   1  11  612.44   44.40
   2   1  11  606.64  112.79
   2   1  11  594.04   44.10
  -3  -1 -11  202.98   23.00
  -3  -1 -11  208.48   22.30
   3   1  11  232.88   99.99
   3   1  11  217.98   31.80
   3   1  11  182.18   28.80
   3   1  11  235.38   37.90
  -4  -1 -11   38.00   13.80
  -4  -1 -11   42.20   14.80
  -4  -1 -11   23.80   28.20
  -4  -1 -11   69.59   34.90
   4   1  11   16.10   13.20
   4   1  11   51.89   18.10
   4   1  11   -2.00   15.40
   4   1  11   31.50   14.90
   2  -2 -11   61.39   16.80
   2  -2 -11   94.29   20.10
  -2   2  11   63.39   16.10
  -2   2  11   39.70   36.10
  -2   2  11  100.29   23.30
  -2   2  11   39.90   44.70
   1  -2 -11  105.79   20.80
   1  -2 -11  111.59   19.80
  -1   2  11   36.80   41.10
  -1   2  11  136.09   23.90
  -1   2  11   92.69   42.50
  -1   2  11  110.49   22.90
   0  -2 -11    0.20    5.20
   0   2  11    3.50    5.80
   0   2  11   21.90   11.10
   0   2  11   -7.70    9.10
   0   2  11   -1.60    5.50
  -1  -2 -11  176.98   23.00
  -1  -2 -11  196.18   61.89
  -1  -2 -11  172.28   20.30
  -1  -2 -11  168.88   24.50
   1   2  11  150.48   24.40
   1   2  11  128.89   27.40
   1   2  11  108.89   48.20
   1   2  11  184.98   28.90
  -2  -2 -11  333.07   31.60
  -2  -2 -11  335.07   36.20
  -2  -2 -11  331.07   30.50
  -2  -2 -11  437.06   93.69
   2   2  11  416.46   38.00
   2   2  11  424.46   35.30
   2   2  11  292.77   35.30
   2   2  11  404.86   35.90
   2   2  11  430.66   99.39
  -3  -2 -11   20.00   23.10
  -3  -2 -11   18.00    9.50
  -3  -2 -11   -1.90    4.70
  -3  -2 -11   18.10   10.90
   3   2  11   10.00    9.70
   3   2  11   37.70   35.80
   3   2  11   24.10   11.60
   3   2  11   24.60   12.20
   3   2  11   30.80   14.40
  -4  -2 -11  181.18   31.40
  -4  -2 -11  138.69   26.70
  -4  -2 -11  144.19   35.70
   4   2  11  189.68   31.50
   4   2  11  126.19   24.10
   4   2  11  147.59   30.50
   4   2  11  204.78   33.10
   4   2  11  151.68   86.49
  -5  -2 -11  211.98   41.60
  -5  -2 -11  204.38   35.70
   5   2  11  257.37   40.40
   5   2  11  217.78   27.40
   5   2  11  285.67   99.59
   5   2  11  314.77   49.10
   5   2  11  274.27   55.49
   2  -3 -11   16.00   10.70
  -2   3  11   71.99   47.80
  -2   3  11   34.50   15.10
  -2   3  11   42.00   16.50
   1  -3 -11   76.29   19.80
   1  -3 -11   13.20   10.40
  -1   3  11   38.20   13.80
  -1   3  11   22.20   34.80
  -1   3  11   56.59   18.90
  -1   3  11   18.70   27.90
   0  -3 -11    1.10    5.30
   0  -3 -11    7.10    8.40
   0   3  11   -0.20    4.60
   0   3  11   -1.80    4.70
   0   3  11   -2.70    9.60
   0   3  11    0.80    6.10
  -1  -3 -11  150.78   27.00
  -1  -3 -11   89.09   16.20
  -1  -3 -11   54.69   16.30
  -1  -3 -11  138.89   54.29
   1   3  11  138.89   25.90
   1   3  11   47.80   30.20
   1   3  11  102.69   25.50
   1   3  11  137.39   25.70
  -2  -3 -11   58.29   17.20
  -2  -3 -11   59.59   37.60
  -2  -3 -11   41.30   14.90
  -2  -3 -11   84.89   18.50
   2   3  11   42.90   13.60
   2   3  11   48.40   15.80
   2   3  11   67.79   44.70
  -3  -3 -11    7.00    8.00
  -3  -3 -11   10.10   24.90
   3   3  11    1.30    5.20
   3   3  11    4.90    8.40
   3   3  11   10.60   10.80
   3   3  11   23.30   29.30
  -4  -3 -11  110.19   25.50
  -4  -3 -11   95.39   27.90
  -4  -3 -11   60.89   44.10
  -4  -3 -11  104.59   25.00
   4   3  11  120.69   27.50
   4   3  11  140.99   28.70
   4   3  11  155.38   74.79
   4   3  11   83.39   22.00
  -5  -3 -11  331.87  140.39
  -5  -3 -11  402.96   75.09
  -5  -3 -11  280.87   44.30
  -5  -3 -11  306.87   36.10
   5   3  11  257.07   42.50
   5   3  11  366.76   39.60
   5   3  11  360.76   39.50
   5   3  11  396.86   55.29
   5   3  11  324.77  114.19
   1  -4 -11  208.38   34.50
   1  -4 -11  253.47   41.00
  -1   4  11  225.98   35.00
  -1   4  11  257.07  123.49
  -1   4  11  244.98   40.00
  -1   4  11  235.18   42.60
  -1   4  11  327.57  111.59
   0  -4 -11   42.10   19.00
   0  -4 -11   20.90   16.10
   0   4  11   35.70   14.70
   0   4  11   50.99   41.90
   0   4  11   32.60   19.30
   0   4  11   18.70   11.90
  -1  -4 -11  165.18   22.80
  -1  -4 -11  101.19   24.20
  -1  -4 -11  202.88   35.00
  -1  -4 -11  201.18   75.19
   1   4  11  186.98   34.60
   1   4  11  191.98   34.30
   1   4  11  192.58   33.70
  -2  -4 -11  265.97   83.59
  -2  -4 -11  146.29   29.30
  -2  -4 -11  195.78   27.60
  -2  -4 -11  202.18   34.20
   2   4  11  260.37   85.59
   2   4  11  138.99   30.70
   2   4  11  159.98   29.80
   2   4  11  204.48   31.90
  -3  -4 -11   39.70   15.40
  -3  -4 -11   33.50   37.80
  -3  -4 -11   45.80   17.90
   3   4  11   23.80   15.50
   3   4  11   52.79   16.20
   3   4  11   57.59   17.80
   3   4  11   41.80   44.10
  -4  -4 -11   61.79   20.20
  -4  -4 -11   93.79   31.00
  -4  -4 -11   94.89   51.29
   4   4  11   50.79   19.00
   4   4  11   35.70   36.20
   4   4  11  106.59   25.70
   4   4  11   89.59   22.70
  -5  -4 -11   22.60   29.80
  -5  -4 -11   42.60   18.70
  -5  -4 -11   45.30   18.10
  -5  -4 -11   33.30   16.80
   5   4  11   42.40   16.70
   5   4  11   50.19   19.10
   5   4  11   25.30   43.90
   5   4  11   30.00   16.30
   0  -5 -11    0.80    9.40
   0  -5 -11   24.30   17.50
   0   5  11   11.20   12.90
   0   5  11   13.30   11.40
   0   5  11   21.10   14.20
   0   5  11    4.80   19.30
  -1  -5 -11  179.88   37.20
  -1  -5 -11  250.77   42.20
  -1  -5 -11  212.08   28.20
  -1  -5 -11  253.87   81.19
   1   5  11  182.18   73.09
   1   5  11  288.37   32.40
   1   5  11  203.68   37.60
   1   5  11  246.58   40.60
  -2  -5 -11  414.46   50.19
  -2  -5 -11  484.05   39.80
  -2  -5 -11  476.85   48.80
  -2  -5 -11  735.93  158.28
   2   5  11  364.06   60.99
   2   5  11  438.46   45.10
   2   5  11  368.46  105.99
   2   5  11  559.74   47.30
  -3  -5 -11    4.40    9.70
  -3  -5 -11   59.09   46.10
  -3  -5 -11   19.90   14.50
  -3  -5 -11   -3.10    5.10
   3   5  11   21.30   13.70
   3   5  11   14.90   12.70
   3   5  11   25.70   12.90
   3   5  11   24.60   33.90
  -4  -5 -11  234.88   42.40
  -4  -5 -11  193.88   31.80
  -4  -5 -11  150.58   63.99
   4   5  11  192.58   35.30
   4   5  11  240.48   86.19
   4   5  11  211.98   34.40
   4   5  11  160.58   32.80
  -5  -5 -11  200.78   40.90
  -5  -5 -11  177.28   71.69
  -5  -5 -11  247.48   40.90
   5   5  11  253.47   91.39
   5   5  11  283.27   45.10
   5   5  11  283.97   42.60
  -1  -6 -11  873.91   61.79
  -1  -6 -11  647.74   64.69
  -1  -6 -11  649.14  141.19
  -1  -6 -11  950.80   77.49
   1   6  11  902.31   66.39
   1   6  11  798.82   69.19
   1   6  11  985.60  191.18
  -2  -6 -11  101.59   29.70
  -2  -6 -11  136.49   32.60
  -2  -6 -11   98.39   57.29
   2   6  11  162.48   31.40
   2   6  11  127.79   29.60
   2   6  11   85.29   26.70
   2   6  11  172.58   82.99
  -3  -6 -11  108.69   29.90
  -3  -6 -11  139.29   34.10
  -3  -6 -11  240.58   96.69
   3   6  11  192.38   35.10
   3   6  11   72.49   23.90
   3   6  11  165.08   33.90
   3   6  11  120.49   63.39
  -4  -6 -11  255.77   40.50
  -4  -6 -11  304.27   48.70
  -4  -6 -11  523.95  144.09
  -4  -6 -11  393.96   59.59
   4   6  11  326.97  108.19
   4   6  11  423.26   42.60
   4   6  11  251.37   42.30
   4   6  11  209.28   40.20
  -5  -6 -11  358.26   54.79
  -5  -6 -11  300.37   47.80
  -5  -6 -11  316.47  115.29
  -5  -6 -11  256.27   42.00
   5   6  11  327.97   48.80
   5   6  11  264.07   45.00
   5   6  11  244.48  101.69
   5   6  11  405.36   42.60
   0   0  12  253.67   23.20
   0   0  12  199.38   33.80
   0   0  12  248.38   23.80
   1   0  12   25.20   14.70
   1   0  12   21.80   12.50
   1   0  12   33.20   10.60
   1   0  12    5.30   13.50
   1   0  12   13.50    8.30
  -1   1  12  429.16   95.79
  -1   1  12  487.15   37.50
  -1   1  12  413.16   82.99
  -1   1  12  438.46   38.10
   0   1  12  370.16   31.30
   0   1  12  283.47   43.70
   0   1  12  371.16   32.40
   0   1  12  303.47   73.89
  -1  -1 -12   -3.50    8.10
   1   1  12    5.30    9.20
   1   1  12   12.80    9.50
   1   1  12    7.50    7.60
   1   1  12    8.80    7.00
   1   1  12   13.30   19.80
  -2  -1 -12  305.27   75.59
   2   1  12  375.66   33.70
   2   1  12  468.75   37.70
   2   1  12  411.26   39.30
   2   1  12  315.67   36.40
   2   1  12  386.16   90.19
   1  -2 -12  508.15   36.50
  -1   2  12  362.76  101.79
  -1   2  12  459.45   43.00
  -1   2  12  472.05  102.39
  -1   2  12  548.25   43.00
   0  -2 -12   63.59   14.00
   0   2  12   52.19   15.50
   0   2  12   50.19   24.00
   0   2  12   66.39   18.00
   0   2  12   64.19   41.80
  -1  -2 -12  288.87   26.20
  -1  -2 -12  323.27   97.19
  -1  -2 -12  253.27   24.70
   1   2  12  323.17   30.70
   1   2  12  239.68   72.29
   1   2  12  237.08   38.30
   1   2  12  319.77   31.60
  -2  -2 -12  693.83   52.09
  -2  -2 -12  620.54   58.59
  -2  -2 -12  671.03  115.79
   2   2  12  845.22   55.79
   2   2  12  828.12   56.49
   2   2  12  778.62  133.59
  -3  -2 -12  173.78   26.90
  -3  -2 -12   73.29   39.10
  -3  -2 -12   91.49   20.20
   3   2  12   26.90   30.30
   3   2  12   86.39   23.90
   3   2  12  129.29   24.60
   3   2  12  134.29   31.40
   3   2  12  124.29   25.90
   1  -3 -12  252.07   29.20
   1  -3 -12  134.49   36.80
  -1   3  12  224.88   33.70
  -1   3  12  185.18   33.80
  -1   3  12  177.28   67.69
  -1   3  12  203.28   48.60
   0  -3 -12  131.29   25.40
   0   3  12  261.87   79.89
   0   3  12  131.89   30.10
   0   3  12  117.69   24.60
   0   3  12  182.78   29.50
  -1  -3 -12  955.50   63.69
  -1  -3 -12  833.92   60.09
   1   3  12  775.92   67.19
   1   3  12  984.30   64.39
   1   3  12 1082.59  178.68
   1   3  12  994.80   66.39
  -2  -3 -12  516.55   43.80
  -2  -3 -12  431.96   40.20
  -2  -3 -12  537.15   49.99
  -2  -3 -12  827.72  233.08
   2   3  12  480.35   48.40
   2   3  12  472.45   43.60
   2   3  12  500.35  130.59
   2   3  12  546.35   44.00
  -3  -3 -12    9.80   10.20
  -3  -3 -12   17.90   10.90
  -3  -3 -12   18.80   10.90
  -3  -3 -12    3.00   22.90
   3   3  12   -0.90   17.80
   3   3  12    4.00    9.50
   3   3  12   16.70   11.80
   3   3  12   -1.00    4.80
  -4  -3 -12  642.64   52.59
  -4  -3 -12  619.84  133.49
  -4  -3 -12  549.74   50.59
   4   3  12  400.96   45.60
   4   3  12  537.15   55.99
   4   3  12  509.25  120.19
   4   3  12  621.14   56.39
   4   3  12  572.54   48.90
   0   4  12  956.00   73.29
   0   4  12  754.32  149.59
   0   4  12 1126.19   72.99
  -1  -4 -12 1253.37   82.49
  -1  -4 -12  897.91   73.49
   1   4  12 1353.06   80.29
   1   4  12 1109.19  186.18
   1   4  12 1153.38   80.09
   1   4  12 1115.59   83.69
  -2  -4 -12    1.80    8.10
  -2  -4 -12   16.40   12.70
  -2  -4 -12   27.10   14.00
  -2  -4 -12    9.70   28.40
   2   4  12   12.20   20.50
   2   4  12   12.80   10.80
   2   4  12   30.30   13.90
  -3  -4 -12  639.34   54.59
  -3  -4 -12  575.74  150.28
  -3  -4 -12  572.84   50.99
   3   4  12  710.63   53.49
   3   4  12  496.75   54.39
   3   4  12  439.36  161.68
   3   4  12  614.84   52.19
  -4  -4 -12  952.80   72.79
  -4  -4 -12 1195.88  157.88
  -4  -4 -12 1095.99   78.49
   4   4  12  784.22  157.28
   4   4  12 1154.38   76.99
   4   4  12 1166.28   76.19
   4   4  12  836.52   73.59
  -1  -5 -12   52.59   21.20
  -1  -5 -12   22.00   39.70
  -1  -5 -12   32.40   23.30
  -1  -5 -12   54.99   15.00
   1   5  12   51.19   25.70
   1   5  12  110.99   57.99
   1   5  12   68.39   19.20
   1   5  12   49.99   17.70
  -2  -5 -12  246.18   42.60
  -2  -5 -12  338.07   49.30
  -2  -5 -12  254.07   43.80
  -2  -5 -12  283.87   96.69
   2   5  12  381.76   38.20
   2   5  12  300.37   44.60
   2   5  12  217.98   41.70
  -3  -5 -12 1432.96  176.38
  -3  -5 -12 1306.17   84.69
  -3  -5 -12 1269.07   91.39
  -3  -5 -12 1542.05   98.59
   3   5  12 1136.99   91.89
   3   5  12 1243.18  251.17
   3   5  12 1566.74   93.09
   3   5  12 1413.16   93.09
  -4  -5 -12  662.93   60.29
  -4  -5 -12  778.22  235.38
  -4  -5 -12  603.84   53.99
   4   5  12  538.25  154.98
   4   5  12  499.45   55.29
   4   5  12  611.04   56.79
   4   5  12  844.22   61.29
   0   0   0    0.00    0.00

_computing_structure_solution     'SHELXT 2014/5 (Sheldrick, 2014)'
;
_shelx_hkl_checksum              94562
_olex2_submission_special_instructions 'No special instructions were received'
loop_
_space_group_symop_operation_xyz
'x, y, z'
'-x, -y, -z'
loop_
_atom_site_label
_atom_site_type_symbol
_atom_site_fract_x
_atom_site_fract_y
_atom_site_fract_z
_atom_site_U_iso_or_equiv
_atom_site_adp_type
_atom_site_occupancy
_atom_site_site_symmetry_order
_atom_site_calc_flag
_atom_site_refinement_flags_posn
_atom_site_refinement_flags_adp
_atom_site_refinement_flags_occupancy
_atom_site_disorder_assembly
_atom_site_disorder_group
Pb1 Pb 0.65419(3) 0.57440(4) 0.13678(2) 0.01447(10) Uani 1 1 d . . . . .
Te1 Te 0.36065(6) 0.33696(6) 0.47857(4) 0.01378(11) Uani 1 1 d . . . . .
B1 B 0.1441(11) 0.6659(11) 0.2113(7) 0.0135(12) Uani 1 1 d . . . . .
B2 B 0.3426(10) 0.2340(11) 0.2138(7) 0.0125(12) Uani 1 1 d . . . . .
B3 B 0.7634(11) -0.0041(12) 0.1533(7) 0.0131(12) Uani 1 1 d . . . . .
B4 B 0.0815(11) 0.0688(11) 0.1792(7) 0.0116(12) Uani 1 1 d . . . . .
O1 O 0.2315(6) 0.8477(7) 0.1740(5) 0.0144(8) Uani 1 1 d . . . . .
O2 O 0.1099(7) 0.5927(7) 0.3693(5) 0.0152(8) Uani 1 1 d . . . . .
O3 O 0.3176(6) 0.4769(7) 0.1538(5) 0.0120(8) Uani 1 1 d . . . . .
O4 O 0.3903(7) 0.1392(7) 0.3677(5) 0.0170(9) Uani 1 1 d . . . . .
O5 O 0.1296(6) 0.2376(7) 0.1859(5) 0.0140(8) Uani 1 1 d . . . . .
O6 O -0.1545(6) 0.1416(7) 0.1708(5) 0.0149(8) Uani 1 1 d . . . . .
O7 O 0.5348(6) 0.0769(7) 0.1375(5) 0.0150(8) Uani 1 1 d . . . . .
O8 O 0.9145(6) -0.2257(7) 0.1510(5) 0.0145(8) Uani 1 1 d . . . . .
O9 O 0.6014(7) 0.4148(8) 0.3842(5) 0.0174(9) Uani 1 1 d . . . . .
loop_
_atom_site_aniso_label
_atom_site_aniso_U_11
_atom_site_aniso_U_22
_atom_site_aniso_U_33
_atom_site_aniso_U_23
_atom_site_aniso_U_13
_atom_site_aniso_U_12
Pb1 0.01266(13) 0.01451(13) 0.01812(14) -0.00518(9) -0.00095(8) -0.00704(9)
Te1 0.01410(18) 0.01383(19) 0.0145(2) -0.00442(15) -0.00104(14) -0.00662(15)
B1 0.013(3) 0.013(3) 0.019(3) -0.004(3) -0.002(2) -0.009(3)
B2 0.011(3) 0.011(3) 0.018(3) -0.004(3) -0.003(2) -0.005(2)
B3 0.015(3) 0.017(3) 0.011(3) -0.005(3) -0.001(2) -0.008(3)
B4 0.017(3) 0.011(3) 0.010(3) -0.001(2) -0.002(2) -0.010(2)
O1 0.0089(18) 0.0109(19) 0.024(2) -0.0046(18) -0.0009(15) -0.0047(15)
O2 0.0126(19) 0.0113(19) 0.017(2) -0.0042(17) 0.0013(15) -0.0025(16)
O3 0.0086(17) 0.0074(18) 0.022(2) -0.0069(17) -0.0022(15) -0.0032(15)
O4 0.023(2) 0.014(2) 0.017(2) -0.0045(18) -0.0051(17) -0.0089(17)
O5 0.0073(17) 0.0116(19) 0.025(2) -0.0054(18) -0.0011(15) -0.0056(15)
O6 0.0081(18) 0.0111(19) 0.029(2) -0.0080(18) -0.0028(16) -0.0043(15)
O7 0.0094(18) 0.016(2) 0.025(2) -0.0117(18) 0.0009(16) -0.0062(16)
O8 0.0065(17) 0.0124(19) 0.025(2) -0.0074(18) -0.0029(15) -0.0023(15)
O9 0.018(2) 0.022(2) 0.017(2) -0.0062(18) -0.0016(16) -0.0119(18)
loop_
_atom_type_symbol
_atom_type_description
_atom_type_scat_dispersion_real
_atom_type_scat_dispersion_imag
_atom_type_scat_source
B B 0.0013 0.0007 'International Tables Vol C Tables 4.2.6.8 and 6.1.1.4'
O O 0.0106 0.0060 'International Tables Vol C Tables 4.2.6.8 and 6.1.1.4'
Pb Pb -3.3944 10.1111 'International Tables Vol C Tables 4.2.6.8 and 6.1.1.4'
Te Te -0.5308 1.6751 'International Tables Vol C Tables 4.2.6.8 and 6.1.1.4'
loop_
_geom_angle_atom_site_label_1
_geom_angle_atom_site_label_2
_geom_angle_atom_site_label_3
_geom_angle
_geom_angle_site_symmetry_1
_geom_angle_site_symmetry_3
_geom_angle_publ_flag
O1 Pb1 O3 55.17(12) . . ?
O1 Pb1 O3 104.45(12) . 2_665 ?
O1 Pb1 O5 162.91(13) . 1_655 ?
O1 Pb1 O7 62.38(11) . 1_565 ?
O1 Pb1 O7 69.90(12) . 2_665 ?
O1 Pb1 O8 108.81(12) . 1_565 ?
O3 Pb1 O3 78.64(13) . 2_665 ?
O3 Pb1 O5 125.62(11) . 1_655 ?
O3 Pb1 O7 114.34(11) 2_665 1_565 ?
O3 Pb1 O7 117.36(11) . 1_565 ?
O3 Pb1 O7 85.98(12) . 2_665 ?
O3 Pb1 O8 163.46(12) . 1_565 ?
O5 Pb1 O3 91.96(11) 1_655 2_665 ?
O5 Pb1 O7 115.26(10) 1_655 1_565 ?
O5 Pb1 O7 126.21(12) 1_655 2_665 ?
O6 Pb1 O1 129.69(12) 1_655 . ?
O6 Pb1 O3 76.23(12) 1_655 . ?
O6 Pb1 O3 74.81(13) 1_655 2_665 ?
O6 Pb1 O5 49.87(11) 1_655 1_655 ?
O6 Pb1 O7 123.04(12) 1_655 2_665 ?
O6 Pb1 O7 164.20(11) 1_655 1_565 ?
O6 Pb1 O8 118.00(12) 1_655 1_565 ?
O7 Pb1 O3 48.56(11) 2_665 2_665 ?
O7 Pb1 O7 68.44(13) 2_665 1_565 ?
O8 Pb1 O3 112.11(12) 1_565 2_665 ?
O8 Pb1 O5 68.15(11) 1_565 1_655 ?
O8 Pb1 O7 47.37(11) 1_565 1_565 ?
O8 Pb1 O7 92.08(12) 1_565 2_665 ?
O9 Pb1 O1 79.78(14) . . ?
O9 Pb1 O3 75.88(13) . . ?
O9 Pb1 O3 145.15(12) . 2_665 ?
O9 Pb1 O5 84.03(13) . 1_655 ?
O9 Pb1 O6 76.31(15) . 1_655 ?
O9 Pb1 O7 149.67(13) . 2_665 ?
O9 Pb1 O7 98.44(13) . 1_565 ?
O9 Pb1 O8 98.47(13) . 1_565 ?
O2 Te1 O4 153.64(15) . 2_656 ?
O2 Te1 O4 91.28(17) . . ?
O2 Te1 O9 94.61(15) . 2_666 ?
O4 Te1 O4 70.32(17) . 2_656 ?
O4 Te1 O9 169.66(16) . 2_666 ?
O9 Te1 O2 99.46(18) . . ?
O9 Te1 O4 97.34(18) . . ?
O9 Te1 O4 101.45(16) . 2_656 ?
O9 Te1 O4 106.63(12) 2_666 2_656 ?
O9 Te1 O9 73.33(18) . 2_666 ?
O2 B1 O1 107.7(5) . . ?
O3 B1 O1 106.1(5) . . ?
O3 B1 O2 113.6(5) . . ?
O3 B1 O8 113.5(5) . 1_465 ?
O8 B1 O1 109.2(5) 1_465 . ?
O8 B1 O2 106.5(5) 1_465 . ?
O3 B2 O7 110.3(5) . . ?
O4 B2 O3 112.0(5) . . ?
O4 B2 O7 108.1(5) . . ?
O5 B2 O3 107.3(4) . . ?
O5 B2 O4 111.9(5) . . ?
O5 B2 O7 107.1(4) . . ?
O7 B3 O6 120.1(5) . 1_655 ?
O8 B3 O6 119.3(5) . 1_655 ?
O8 B3 O7 120.6(5) . . ?
O1 B4 O6 118.3(5) 1_545 . ?
O5 B4 O1 128.2(5) . 1_545 ?
O5 B4 O6 113.4(5) . . ?
B1 O1 Pb1 96.4(3) . . ?
B4 O1 Pb1 144.4(3) 1_565 . ?
B4 O1 B1 119.0(4) 1_565 . ?
B1 O2 Te1 118.2(3) . . ?
B1 O3 Pb1 97.2(3) . . ?
B1 O3 B2 121.6(5) . . ?
B2 O3 Pb1 122.1(3) . . ?
B2 O4 Te1 121.5(3) . . ?
B2 O5 Pb1 137.4(3) . 1_455 ?
B4 O5 Pb1 90.2(3) . 1_455 ?
B4 O5 B2 132.4(5) . . ?
B3 O6 Pb1 130.8(3) 1_455 1_455 ?
B3 O6 B4 121.8(5) 1_455 . ?
B4 O6 Pb1 105.9(3) . 1_455 ?
B3 O7 B2 126.1(5) . . ?
B1 O8 Pb1 129.8(3) 1_645 1_545 ?
B3 O8 Pb1 105.3(3) . 1_545 ?
B3 O8 B1 119.3(5) . 1_645 ?
Te1 O9 Pb1 127.81(19) . . ?
loop_
_geom_bond_atom_site_label_1
_geom_bond_atom_site_label_2
_geom_bond_distance
_geom_bond_site_symmetry_2
_geom_bond_publ_flag
Pb1 O1 2.544(4) . ?
Pb1 O3 2.971(4) 2_665 ?
Pb1 O3 2.553(4) . ?
Pb1 O5 2.876(4) 1_655 ?
Pb1 O6 2.497(4) 1_655 ?
Pb1 O7 3.098(4) 1_565 ?
Pb1 O7 2.937(4) 2_665 ?
Pb1 O8 2.678(4) 1_565 ?
Pb1 O9 2.346(4) . ?
Te1 O2 1.894(4) . ?
Te1 O4 1.919(4) . ?
Te1 O4 2.822(4) 2_656 ?
Te1 O9 2.604(4) 2_666 ?
Te1 O9 1.880(4) . ?
B1 O1 1.499(7) . ?
B1 O2 1.476(8) . ?
B1 O3 1.454(8) . ?
B1 O8 1.474(7) 1_465 ?
B2 O3 1.478(7) . ?
B2 O4 1.468(8) . ?
B2 O5 1.466(7) . ?
B2 O7 1.482(8) . ?
B3 O6 1.393(7) 1_655 ?
B3 O7 1.355(7) . ?
B3 O8 1.352(8) . ?
B4 O1 1.356(7) 1_545 ?
B4 O5 1.341(7) . ?
B4 O6 1.399(7) . ?
loop_
_geom_torsion_atom_site_label_1
_geom_torsion_atom_site_label_2
_geom_torsion_atom_site_label_3
_geom_torsion_atom_site_label_4
_geom_torsion
_geom_torsion_site_symmetry_1
_geom_torsion_site_symmetry_2
_geom_torsion_site_symmetry_3
_geom_torsion_site_symmetry_4
_geom_torsion_publ_flag
O1 B1 O2 Te1 -90.1(5) . . . . ?
O1 B1 O3 Pb1 20.9(4) . . . . ?
O1 B1 O3 B2 155.9(4) . . . . ?
O1 B4 O5 Pb1 170.3(6) 1_545 . . 1_455 ?
O1 B4 O5 B2 -12.0(11) 1_545 . . . ?
O1 B4 O6 Pb1 -169.3(4) 1_545 . . 1_455 ?
O1 B4 O6 B3 -1.9(9) 1_545 . . 1_455 ?
O2 Te1 O9 Pb1 -38.9(3) . . . . ?
O2 B1 O1 Pb1 101.0(4) . . . . ?
O2 B1 O1 B4 -75.5(6) . . . 1_565 ?
O2 B1 O3 Pb1 -97.2(4) . . . . ?
O2 B1 O3 B2 37.8(7) . . . . ?
O3 B1 O1 Pb1 -20.9(4) . . . . ?
O3 B1 O1 B4 162.6(5) . . . 1_565 ?
O3 B1 O2 Te1 27.1(6) . . . . ?
O3 B2 O4 Te1 11.2(6) . . . . ?
O3 B2 O5 Pb1 -24.8(7) . . . 1_455 ?
O3 B2 O5 B4 158.6(6) . . . . ?
O3 B2 O7 B3 74.6(7) . . . . ?
O4 Te1 O2 B1 -54.5(4) . . . . ?
O4 Te1 O2 B1 -99.0(5) 2_656 . . . ?
O4 Te1 O9 Pb1 53.7(3) . . . . ?
O4 Te1 O9 Pb1 125.0(2) 2_656 . . . ?
O4 B2 O3 Pb1 65.7(6) . . . . ?
O4 B2 O3 B1 -58.4(6) . . . . ?
O4 B2 O5 Pb1 98.5(5) . . . 1_455 ?
O4 B2 O5 B4 -78.1(8) . . . . ?
O4 B2 O7 B3 -48.3(7) . . . . ?
O5 B2 O3 Pb1 -171.1(3) . . . . ?
O5 B2 O3 B1 64.8(6) . . . . ?
O5 B2 O4 Te1 -109.3(4) . . . . ?
O5 B2 O7 B3 -169.0(5) . . . . ?
O5 B4 O6 Pb1 8.2(6) . . . 1_455 ?
O5 B4 O6 B3 175.6(5) . . . 1_455 ?
O6 B3 O7 B2 -38.2(9) 1_655 . . . ?
O6 B3 O8 Pb1 175.5(4) 1_655 . . 1_545 ?
O6 B3 O8 B1 19.2(9) 1_655 . . 1_645 ?
O6 B4 O5 Pb1 -6.8(5) . . . 1_455 ?
O6 B4 O5 B2 170.9(5) . . . . ?
O7 B2 O3 Pb1 -54.7(6) . . . . ?
O7 B2 O3 B1 -178.8(4) . . . . ?
O7 B2 O4 Te1 133.0(4) . . . . ?
O7 B2 O5 Pb1 -143.2(4) . . . 1_455 ?
O7 B2 O5 B4 40.1(8) . . . . ?
O7 B3 O8 Pb1 -5.0(7) . . . 1_545 ?
O7 B3 O8 B1 -161.3(5) . . . 1_645 ?
O8 B1 O1 Pb1 -143.7(4) 1_465 . . . ?
O8 B1 O1 B4 39.8(7) 1_465 . . 1_565 ?
O8 B1 O2 Te1 152.9(3) 1_465 . . . ?
O8 B1 O3 Pb1 140.9(4) 1_465 . . . ?
O8 B1 O3 B2 -84.2(6) 1_465 . . . ?
O8 B3 O7 B2 142.3(6) . . . . ?
O9 Te1 O2 B1 43.2(4) . . . . ?
O9 Te1 O2 B1 117.0(4) 2_666 . . . ?
O9 Te1 O9 Pb1 -130.9(3) 2_666 . . . ?
