#------------------------------------------------------------------------------
#$Date: 2021-07-05 20:37:06 +0300 (Mon, 05 Jul 2021) $
#$Revision: 267169 $
#$URL: file:///home/coder/svn-repositories/cod/cif/7/70/75/7707537.cif $
#------------------------------------------------------------------------------
#
# This file is available in the Crystallography Open Database (COD),
# http://www.crystallography.net/
#
# All data on this site have been placed in the public domain by the
# contributors.
#
data_7707537
loop_
_publ_author_name
'Chen, Zilong'
'Wu, Chengfa'
'Zeng, Hao'
'Yu, Feng'
_publ_section_title
;
 A new acentric borate-nitrate
 Cs<sub>3</sub>B<sub>8</sub>O<sub>13</sub>(NO<sub>3</sub>) with
 interpenetrating porous 3D covalent and ionic lattices.
;
_journal_issue                   25
_journal_name_full
'Dalton transactions (Cambridge, England : 2003)'
_journal_page_first              8676
_journal_page_last               8679
_journal_paper_doi               10.1039/d1dt01275d
_journal_volume                  50
_journal_year                    2021
_chemical_formula_sum            'B8 Cs3 N O16'
_chemical_formula_weight         755.22
_space_group_crystal_system      orthorhombic
_space_group_IT_number           29
_space_group_name_Hall           'P 2c -2ac'
_space_group_name_H-M_alt        'P c a 21'
_audit_creation_method           SHELXL-2013
_audit_update_record
;
2021-03-01 deposited with the CCDC.	2021-06-01 downloaded from the CCDC.
;
_cell_angle_alpha                90
_cell_angle_beta                 90
_cell_angle_gamma                90
_cell_formula_units_Z            4
_cell_length_a                   8.785(6)
_cell_length_b                   13.001(9)
_cell_length_c                   14.593(10)
_cell_measurement_reflns_used    934
_cell_measurement_temperature    296(2)
_cell_measurement_theta_max      19.51
_cell_measurement_theta_min      2.79
_cell_volume                     1667(2)
_computing_cell_refinement       'Bruker SAINT'
_computing_data_collection       'Bruker APEX2'
_computing_data_reduction        'Bruker SAINT'
_computing_molecular_graphics    'Bruker SHELXTL'
_computing_publication_material  'Bruker SHELXTL'
_computing_structure_refinement  'SHELXL-2013 (Sheldrick, 2013)'
_computing_structure_solution    'SHELXS-97 (Sheldrick 2008)'
_diffrn_ambient_temperature      296(2)
_diffrn_measured_fraction_theta_full 0.999
_diffrn_measured_fraction_theta_max 0.991
_diffrn_measurement_device_type  'Bruker APEX-II CCD'
_diffrn_measurement_method       '\f and \w scans'
_diffrn_radiation_type           MoK\a
_diffrn_radiation_wavelength     0.71073
_diffrn_reflns_av_R_equivalents  0.0807
_diffrn_reflns_av_unetI/netI     0.0997
_diffrn_reflns_Laue_measured_fraction_full 0.999
_diffrn_reflns_Laue_measured_fraction_max 0.991
_diffrn_reflns_limit_h_max       8
_diffrn_reflns_limit_h_min       -11
_diffrn_reflns_limit_k_max       16
_diffrn_reflns_limit_k_min       -16
_diffrn_reflns_limit_l_max       18
_diffrn_reflns_limit_l_min       -16
_diffrn_reflns_number            9809
_diffrn_reflns_point_group_measured_fraction_full 0.950
_diffrn_reflns_point_group_measured_fraction_max 0.934
_diffrn_reflns_theta_full        25.242
_diffrn_reflns_theta_max         27.446
_diffrn_reflns_theta_min         2.792
_exptl_absorpt_coefficient_mu    6.607
_exptl_absorpt_correction_type   none
_exptl_crystal_colour            colourless
_exptl_crystal_density_diffrn    3.010
_exptl_crystal_description       block
_exptl_crystal_F_000             1360
_refine_diff_density_max         1.158
_refine_diff_density_min         -1.021
_refine_diff_density_rms         0.219
_refine_ls_abs_structure_details
; 
 Flack x determined using 872 quotients [(I+)-(I-)]/[(I+)+(I-)] 
 (Parsons and Flack (2004), Acta Cryst. A60, s61). 
;
_refine_ls_abs_structure_Flack   0.02(4)
_refine_ls_extinction_coef       0.00079(14)
_refine_ls_extinction_expression Fc^*^=kFc[1+0.001xFc^2^\l^3^/sin(2\q)]^-1/4^
_refine_ls_extinction_method     SHELXL
_refine_ls_goodness_of_fit_ref   0.944
_refine_ls_hydrogen_treatment    undef
_refine_ls_matrix_type           full
_refine_ls_number_parameters     254
_refine_ls_number_reflns         3559
_refine_ls_number_restraints     25
_refine_ls_restrained_S_all      0.941
_refine_ls_R_factor_all          0.0751
_refine_ls_R_factor_gt           0.0475
_refine_ls_shift/su_max          0.001
_refine_ls_shift/su_mean         0.000
_refine_ls_structure_factor_coef Fsqd
_refine_ls_weighting_details
; 
 w=1/[\s^2^(Fo^2^)+(0.0274P)^2^] 
 where P=(Fo^2^+2Fc^2^)/3 
;
_refine_ls_weighting_scheme      calc
_refine_ls_wR_factor_gt          0.0829
_refine_ls_wR_factor_ref         0.0943
_reflns_Friedel_coverage         0.808
_reflns_Friedel_fraction_full    0.897
_reflns_Friedel_fraction_max     0.871
_reflns_number_gt                2538
_reflns_number_total             3559
_reflns_threshold_expression     'I > 2\s(I)'
_cod_data_source_file            d1dt01275d2.cif
_cod_data_source_block           1
_cod_depositor_comments          'Adding full bibliography for 7707537.cif.'
_cod_database_code               7707537
_shelx_space_group_comment
; 
The symmetry employed for this shelxl refinement is uniquely defined 
by the following loop, which should always be used as a source of 
symmetry information in preference to the above space-group names. 
They are only intended as comments. 
;
_shelxl_version_number           2013-2
_shelx_res_file
; 
TITL 1_a.res in Pca2(1) 
CELL 0.71073 8.7855 13.0008 14.593 90 90 90 
ZERR 4 0.006 0.0089 0.0104 0 0 0 
LATT -1 
SYMM -X,-Y,0.5+Z 
SYMM 0.5+X,-Y,+Z 
SYMM 0.5-X,+Y,0.5+Z 
SFAC B  Cs O  N 
UNIT 32  12  64  4 
L.S. 70 
ACTA 
BOND 
FMAP 2 
PLAN 1 
ISOR 0.002 B6 B2 B4 B8 
TEMP 23 
WGHT    0.027400 
EXTI    0.000789 
FVAR       0.17189 
CS1   2    0.486244    0.476753    0.472582    11.00000    0.03023    0.03426 = 
         0.02836   -0.00357   -0.00207    0.00574 
CS2   2    0.613525    0.764268    0.264137    11.00000    0.03282    0.02967 = 
         0.03257   -0.00012   -0.00159    0.00112 
CS3   2    0.434706    1.015206    0.500090    11.00000    0.03158    0.03402 = 
         0.03502    0.00171   -0.00344   -0.01033 
B1    1   -0.030370    0.432543    0.724390    11.00000    0.02291    0.02044 = 
         0.01466   -0.00276   -0.00012   -0.00478 
B2    1    0.217531    0.507516    0.727804    11.00000    0.02077    0.02045 = 
         0.01933   -0.00137   -0.00093    0.00075 
B3    1    0.278465    0.650399    0.625000    11.00000    0.02719    0.01818 = 
         0.01314    0.00690   -0.00513    0.00056 
B4    1    0.211089    0.835702    0.614643    11.00000    0.01628    0.01614 = 
         0.01564    0.00128   -0.00114   -0.00008 
B5    1    0.246576    0.737112    0.476243    11.00000    0.02807    0.01733 = 
         0.01509   -0.00198    0.00226    0.00383 
B6    1    0.202004    0.817455    0.333112    11.00000    0.01522    0.01568 = 
         0.01540   -0.00046   -0.00170    0.00173 
B7    1    0.001570    0.924981    0.267999    11.00000    0.01860    0.01408 = 
         0.01552    0.00253   -0.00537   -0.01239 
B8    1    0.273970    0.965082    0.240009    11.00000    0.02184    0.02247 = 
         0.02171   -0.00178    0.00074    0.00102 
N1    4    0.731197    0.745014    0.499574    11.00000    0.05613    0.04227 = 
         0.02374    0.00863   -0.00227   -0.00704 
O1    3   -0.061770    0.370277    0.655055    11.00000    0.01728    0.02788 = 
         0.03200   -0.00243   -0.00898    0.00324 
O2    3    0.116416    0.435952    0.761821    11.00000    0.01540    0.02682 = 
         0.01939    0.00686   -0.00881   -0.00183 
O3    3    0.359971    0.507468    0.766845    11.00000    0.01629    0.03198 = 
         0.02142    0.01158   -0.00463    0.00008 
O4    3    0.177310    0.571606    0.660014    11.00000    0.03097    0.02423 = 
         0.02225    0.00857   -0.00432   -0.00289 
O5    3    0.231972    0.750450    0.663601    11.00000    0.04301    0.01744 = 
         0.01744    0.00275   -0.00268    0.00442 
O6    3    0.274832    0.650870    0.525596    11.00000    0.03280    0.01916 = 
         0.00955   -0.00131   -0.00100    0.00739 
O7    3    0.693440    0.666007    0.460198    11.00000    0.06676    0.03838 = 
         0.04735   -0.00799   -0.01521   -0.00531 
O8    3    0.844720    0.746023    0.550383    11.00000    0.06812    0.06670 = 
         0.06199   -0.00298   -0.04059    0.00511 
O9    3    0.661556    0.827446    0.481661    11.00000    0.07117    0.04340 = 
         0.08222   -0.00554   -0.01403    0.01608 
O10   3    0.180270    0.929385    0.647373    11.00000    0.02071    0.02366 = 
         0.01489    0.00577   -0.00736    0.00784 
O11   3    0.215660    0.828932    0.518161    11.00000    0.03242    0.02107 = 
         0.01657    0.00214    0.00111    0.00432 
O12   3    0.239693    0.730951    0.382184    11.00000    0.02299    0.02012 = 
         0.02509    0.00008   -0.00206    0.00841 
O13   3    0.308874    0.887819    0.310507    11.00000    0.01468    0.01900 = 
         0.02291   -0.00010   -0.00351    0.00041 
O14   3    0.112335    0.989970    0.235050    11.00000    0.00918    0.02004 = 
         0.03350    0.01126   -0.00526    0.00648 
O15   3   -0.146031    0.939577    0.261515    11.00000    0.02172    0.02030 = 
         0.02889    0.01256    0.00567    0.00430 
O16   3    0.049102    0.835017    0.314437    11.00000    0.01112    0.02318 = 
         0.02624    0.00860    0.00564   -0.00120 
HKLF 4 
  
REM  1_a.res in Pca2(1) 
REM R1 =  0.0475 for    2538 Fo > 4sig(Fo)  and  0.0751 for all    3559 data 
REM    254 parameters refined using     25 restraints 
  
END 
  
WGHT      0.0274      0.0000 
  
REM Highest difference peak  1.158,  deepest hole -1.021,  1-sigma level  0.219 
Q1    1   0.4376  0.9401  0.5041  11.00000  0.05    1.16 
;
_shelx_res_checksum              76928
_shelx_hkl_file
; 
  -1   0   0   -0.40    1.20 
  -2   0   0  317.67   19.20 
  -2   0   0  317.47   16.30 
  -3   0   0   -3.60    2.10 
  -3   0   0    4.20    4.10 
  -4   0   0   12.90    6.60 
  -4   0   0   14.60    4.30 
  -5   0   0    1.10    3.30 
  -5   0   0    3.40    5.90 
  -6   0   0   35.00   13.30 
  -7   0   0    4.20    8.90 
  -8   0   0   51.59   17.90 
  -9   0   0    1.80   10.90 
 -10   0   0   46.20   20.20 
 -11   0   0   -1.00   14.90 
  -1   1   0   16.50    3.30 
  -1  -1   0   15.40    3.80 
  -1  -1   0   14.00    3.10 
  -2   1   0  139.39   13.70 
  -2  -1   0  120.59   12.10 
  -2  -1   0  125.69   13.40 
  -3   1   0 1671.93   73.89 
  -3  -1   0 1697.53   71.29 
  -3  -1   0 1579.84   73.19 
  -4   1   0  777.92   43.10 
  -4  -1   0  706.13   37.50 
  -4  -1   0  726.33   42.00 
  -5  -1   0  426.66   27.00 
  -5  -1   0  458.35   33.70 
   5  -1   0  443.06   19.80 
  -5   1   0  435.16   33.10 
  -6  -1   0  688.63   38.60 
  -6  -1   0  761.42   49.30 
  -6   1   0  740.33   49.00 
  -7   1   0  152.68   26.80 
  -7  -1   0  169.08   27.90 
  -8   1   0  502.95   55.59 
  -8  -1   0  536.85   55.29 
  -9  -1   0   -0.40   12.00 
  -9   1   0   -1.30   11.00 
 -10  -1   0   60.89   24.20 
 -10   1   0   44.80   20.00 
 -11  -1   0   33.10   21.70 
 -11   1   0   44.50   24.40 
   0   2   0  725.23   31.00 
  -1  -2   0    1.70    2.70 
   1   2   0    4.50    1.90 
  -1  -2   0    0.00    1.10 
  -1   2   0    0.70    1.60 
   1  -2   0    0.90    1.80 
  -2  -2   0 3696.03  148.49 
  -2  -2   0 3699.93  150.98 
  -2   2   0 3881.71  148.49 
  -3  -2   0  108.99   14.20 
  -3   2   0  111.79   14.70 
  -3  -2   0  106.99   14.60 
  -4  -2   0  723.23   40.00 
  -4  -2   0  676.43   40.90 
  -4   2   0  713.83   41.20 
  -5  -2   0    0.10    4.40 
  -5   2   0   -1.30    5.90 
  -5  -2   0    0.10    5.00 
  -6  -2   0  278.97   33.80 
  -6  -2   0  274.27   27.00 
  -6   2   0  216.48   29.20 
  -7  -2   0   54.29   18.40 
  -7   2   0   52.59   16.30 
  -8  -2   0  153.38   29.00 
  -8   2   0  107.19   24.10 
  -9   2   0   -3.30   10.20 
  -9  -2   0    0.20   10.20 
 -10  -2   0    1.60   13.80 
 -10   2   0   13.50   15.00 
 -11   2   0   11.10   17.40 
 -11  -2   0   17.20   20.50 
   0  -3   0  111.79   13.30 
   0   3   0  108.99    8.90 
  -1  -3   0  488.25   28.80 
   1   3   0  510.95   23.30 
  -1  -3   0  490.25   23.30 
  -1   3   0  490.35   22.90 
  -2   3   0   88.19   10.80 
  -2  -3   0   78.49   13.20 
   2  -3   0   77.89    8.40 
  -2  -3   0   93.99   11.10 
  -3  -3   0  168.98   20.70 
  -3  -3   0  170.98   18.20 
  -3   3   0  237.38   22.10 
  -4   3   0  224.18   24.60 
  -4  -3   0  190.08   22.50 
  -4  -3   0  203.78   23.80 
  -5  -3   0  339.07   27.40 
  -5   3   0  357.46   29.10 
  -5  -3   0  288.27   31.20 
  -6   3   0  885.51   55.79 
  -6  -3   0  846.02   50.69 
  -6  -3   0  868.41   54.69 
  -7  -3   0   99.59   22.40 
  -7   3   0   98.59   21.20 
  -8  -3   0  495.55   52.39 
  -8   3   0  522.25   56.09 
  -9  -3   0   -2.50   11.20 
  -9   3   0   13.90   15.20 
 -10  -3   0  127.39   30.60 
 -10   3   0  136.49   32.60 
 -11  -3   0   26.60   22.10 
 -11   3   0   26.80   21.10 
   0  -4   0 6147.19  245.48 
   0   4   0 6347.86  240.78 
  -1  -4   0    3.70    4.00 
  -1   4   0    8.90    3.30 
   1   4   0    4.70    3.00 
  -1   4   0    2.80    3.80 
  -1  -4   0    4.90    2.90 
   1  -4   0    4.90    3.90 
  -2  -4   0 1306.17   62.69 
   2  -4   0 1174.78   53.79 
   2   4   0 1227.88   52.09 
  -2   4   0 1214.08   53.99 
  -3  -4   0    1.90    4.30 
  -3   4   0    7.30    4.90 
  -3  -4   0    7.80    6.20 
   3  -4   0    2.30    2.50 
  -4  -4   0   45.70   11.30 
  -4  -4   0    7.80    6.70 
  -4   4   0   28.30    9.60 
  -5  -4   0   11.50    7.80 
  -5  -4   0   26.90    9.60 
  -5   4   0   17.60    9.30 
  -6   4   0  111.19   22.20 
  -6  -4   0  100.59   19.40 
  -6  -4   0   72.19   17.00 
  -7  -4   0   18.40   11.60 
  -7  -4   0   16.10   10.30 
  -7   4   0   25.90   13.50 
  -8  -4   0  200.18   31.90 
  -8   4   0  212.88   35.20 
  -9   4   0   47.10   21.10 
  -9  -4   0   61.89   21.20 
 -10  -4   0    0.80   12.50 
 -10   4   0    2.90   15.40 
 -11  -4   0   51.29   24.60 
 -11   4   0   78.79   31.00 
   0   5   0  291.27   19.20 
   0  -5   0  275.27   26.60 
  -1  -5   0  544.35   36.10 
   1  -5   0  562.44   33.70 
   1   5   0  598.04   30.20 
  -1   5   0  616.44   27.80 
  -1  -5   0  580.94   27.60 
  -1   5   0  601.44   33.10 
  -2  -5   0   32.90   10.40 
  -2   5   0   28.70    6.60 
   2  -5   0   22.90    6.90 
  -2   5   0   27.10    8.30 
  -2  -5   0   17.80    5.60 
   2   5   0   31.80    6.40 
  -3  -5   0 1390.66   75.29 
  -3   5   0 1587.34   69.59 
  -3  -5   0 1526.35   68.79 
   3  -5   0 1488.65   64.79 
  -4  -5   0  647.74   44.40 
  -4   5   0  672.43   40.90 
  -4  -5   0  665.03   39.80 
   4  -5   0  702.93   31.50 
  -5  -5   0   55.69   13.80 
  -5   5   0   36.70   11.80 
  -5  -5   0   44.50   14.40 
  -6  -5   0  698.43   47.90 
  -6   5   0  721.83   50.59 
  -6  -5   0  774.92   50.99 
  -7  -5   0   21.90   12.40 
  -7   5   0   34.70   13.80 
  -7  -5   0   16.60   11.90 
  -8   5   0  208.78   35.50 
  -8  -5   0  182.58   30.50 
  -9  -5   0   -1.50   12.80 
  -9   5   0   -5.50   10.40 
 -10  -5   0   51.19   21.00 
 -10   5   0   33.90   23.50 
   0  -6   0  239.58   26.50 
   0   6   0  283.87   20.30 
   1   6   0  153.58   16.10 
  -1  -6   0  123.49   19.60 
  -1   6   0  133.99   18.10 
  -1  -6   0  145.89   10.80 
   1  -6   0  138.59   18.50 
  -1   6   0  145.29   10.80 
  -2  -6   0  688.43   34.40 
   2  -6   0  649.64   37.70 
   2   6   0  709.93   34.80 
  -2  -6   0  610.94   43.10 
  -2   6   0  675.73   40.80 
  -2   6   0  683.53   34.50 
  -3   6   0  179.08   19.80 
  -3  -6   0  145.29   23.50 
   3  -6   0  180.68   18.40 
  -4  -6   0  677.03   47.70 
  -4   6   0  773.12   43.70 
  -4  -6   0  655.83   40.40 
  -5  -6   0   20.60    9.30 
  -5  -6   0   25.20   11.40 
  -5   6   0   29.50   11.30 
  -6   6   0   -5.10    8.60 
  -6  -6   0   24.60   10.10 
  -6  -6   0    3.80    9.60 
  -7  -6   0  116.69   23.20 
  -7  -6   0  134.59   25.30 
  -7   6   0  127.29   26.80 
  -8  -6   0  184.18   31.60 
  -8   6   0  174.38   32.40 
  -9   6   0   67.19   24.60 
  -9  -6   0   60.29   22.10 
 -10  -6   0    3.10   15.10 
 -10   6   0   28.70   23.80 
 -10   6   0   14.20   19.70 
   0   7   0   80.09   13.70 
   0  -7   0  104.79   18.40 
   1   7   0   16.80    6.70 
  -1  -7   0    8.90    6.90 
  -1   7   0    9.30    4.80 
  -1   7   0   11.80    6.50 
   1  -7   0   11.50    7.30 
   2  -7   0    0.40    4.40 
   2   7   0    3.20    4.40 
  -2  -7   0    0.70    3.50 
  -2   7   0   -0.20    5.40 
  -2  -7   0    6.10    6.00 
  -2   7   0    7.90    5.30 
   3  -7   0    7.40    5.60 
  -3   7   0    7.60    6.30 
  -3  -7   0   13.40    6.50 
  -3  -7   0   -3.20    6.00 
  -3   7   0   10.90    8.20 
  -4   7   0   -0.50    5.90 
  -4  -7   0    0.00    5.80 
  -4   7   0   -0.50    6.70 
  -4  -7   0   -0.80    7.60 
  -5   7   0  286.27   32.60 
  -5  -7   0  337.67   33.30 
  -5  -7   0  313.97   39.20 
  -6  -7   0  156.88   28.20 
  -6  -7   0  161.28   24.40 
  -6   7   0  209.08   29.00 
  -7  -7   0  260.37   33.60 
  -7   7   0  233.28   35.60 
  -7  -7   0  290.17   39.00 
  -8   7   0  302.67   42.30 
  -8  -7   0  285.37   38.60 
  -9  -7   0    9.50   13.60 
  -9   7   0   14.40   17.60 
  -9   7   0    8.10   16.30 
 -10   7   0   95.29   30.10 
 -10  -7   0   43.60   22.70 
 -10   7   0   35.30   24.70 
   0  -8   0 1400.36   74.59 
   0   8   0 1360.56   67.19 
   1  -8   0   70.69   15.40 
  -1  -8   0   62.29   15.60 
   1   8   0   41.10   10.00 
  -1   8   0   47.60    8.30 
  -1   8   0   28.90   10.10 
  -2   8   0  268.17   31.30 
  -2  -8   0  222.88   17.10 
  -2   8   0  205.08   17.30 
   2  -8   0  227.68   27.10 
   2   8   0  231.38   22.50 
  -2  -8   0  246.48   31.70 
   3   8   0    4.60    5.70 
  -3   8   0    3.70    8.20 
   3  -8   0    3.50    6.70 
  -3  -8   0    9.40    8.30 
  -3   8   0    4.30    6.60 
  -3  -8   0    4.20    5.60 
  -4   8   0   14.60   10.90 
  -4  -8   0    0.60    5.90 
  -4   8   0   -1.30    7.70 
  -4  -8   0   -4.50    6.50 
  -5  -8   0   10.30   11.60 
  -5   8   0    2.00    9.20 
  -5   8   0    0.30    8.60 
  -5  -8   0    8.40    8.90 
  -6  -8   0  169.28   25.70 
  -6  -8   0   45.80   17.30 
  -6   8   0  108.19   22.50 
  -6   8   0  115.39   26.30 
  -7  -8   0   -3.90   10.20 
  -7   8   0   -4.10   12.70 
  -7   8   0    5.80   11.60 
  -7  -8   0    4.90   12.10 
  -8  -8   0    9.90   13.80 
  -8  -8   0   -1.20   11.60 
  -8   8   0   14.50   16.70 
  -8   8   0    5.60   13.00 
  -9   8   0  129.89   33.20 
  -9   8   0   86.89   27.90 
  -9  -8   0  101.39   26.90 
 -10   8   0   -0.20   19.90 
 -10  -8   0   17.90   19.50 
   0  -9   0  168.18   26.20 
   0   9   0  179.88   23.10 
  -1   9   0  154.78   22.90 
   1   9   0  119.19   17.90 
  -1  -9   0  109.39   22.60 
   1  -9   0  131.79   22.20 
  -2   9   0   73.89   17.70 
   2   9   0   76.99   14.20 
   2  -9   0   71.19   16.10 
  -2  -9   0   49.40   16.00 
  -3  -9   0  689.83   51.99 
  -3   9   0  590.74   46.00 
   3  -9   0  759.52   45.00 
  -4   9   0  378.06   43.80 
  -4  -9   0  338.57   43.40 
  -5  -9   0   27.20   14.10 
  -5   9   0   13.70   10.30 
  -6  -9   0   72.69   22.50 
  -6   9   0  117.99   28.30 
  -7   9   0   28.60   15.50 
  -7  -9   0   20.90   15.10 
  -8   9   0   19.50   17.30 
  -8  -9   0    8.40   16.90 
  -9   9   0    6.30   17.40 
   0 -10   0  100.19   22.00 
   0  10   0   72.49   15.90 
   1 -10   0  295.47   36.20 
  -1  10   0  267.07   31.30 
  -1 -10   0  252.07   36.00 
   1  10   0  263.37   27.70 
  -2  10   0  145.59   23.80 
   2 -10   0  189.88   27.30 
   2  10   0  179.48   22.40 
  -2 -10   0   94.59   22.70 
  -3  10   0  238.68   33.80 
   3 -10   0  234.48   28.90 
  -3 -10   0  197.78   33.40 
  -4 -10   0   41.20   16.90 
  -4  10   0   15.50   10.50 
  -5  10   0    5.60   11.00 
  -5 -10   0    9.90   12.30 
  -6  10   0   18.30   14.00 
  -6 -10   0   -0.40    9.00 
  -7 -10   0  167.58   33.10 
  -7  10   0  111.79   28.60 
  -8 -10   0   55.69   21.60 
  -8  10   0   56.99   25.80 
  -9  10   0   31.30   23.60 
   0 -11   0    3.60   10.20 
   0  11   0   -2.10    7.80 
   1 -11   0    0.50    9.30 
  -1  11   0    6.20    7.70 
  -1 -11   0   11.20   10.50 
   1  11   0    0.90    8.10 
   2 -11   0   11.60   11.60 
  -2 -11   0   -2.90    8.30 
  -2  11   0    3.10    7.70 
  -3  11   0    6.50    9.00 
  -3 -11   0   14.70   13.50 
  -4 -11   0  182.38   34.40 
  -4  11   0  149.39   30.00 
  -5  11   0  340.47   46.20 
  -5 -11   0  490.05   57.39 
  -6 -11   0    6.00   12.90 
  -6  11   0   11.90   13.50 
  -7  11   0  149.79   34.10 
  -7 -11   0  122.09   29.80 
  -8  11   0   92.69   28.90 
  -8 -11   0   91.19   28.20 
   0 -12   0  408.16   47.70 
   0  12   0  385.26   39.70 
   1  12   0   72.89   17.10 
   1 -12   0   87.09   22.50 
  -1 -12   0  101.69   25.80 
  -1  12   0  110.59   22.60 
  -2 -12   0   20.10   14.10 
   2 -12   0   18.20   14.10 
  -2  12   0   11.30    9.70 
  -3  12   0   10.20   11.30 
  -3 -12   0   -1.60   10.40 
  -4 -12   0    9.00   13.40 
  -4  12   0    4.20   10.60 
  -5 -12   0   21.60   14.80 
  -5  12   0   62.19   22.80 
  -6  12   0    2.60   12.60 
  -6 -12   0    0.80   13.00 
  -7  12   0    1.90   13.50 
  -7 -12   0   20.90   18.30 
   0  13   0  151.88   26.80 
   0 -13   0  151.78   30.90 
   1 -13   0   28.90   16.30 
  -1 -13   0   18.50   15.40 
  -1  13   0   28.00   13.60 
  -2  13   0  144.79   27.80 
  -2 -13   0  186.18   35.70 
   2 -13   0  206.48   33.40 
  -3  13   0  189.08   33.10 
  -3 -13   0  226.98   40.00 
  -4  13   0   39.20   18.60 
  -4 -13   0   50.69   19.70 
  -5 -13   0   51.79   22.60 
  -5  13   0   62.69   22.20 
  -6  13   0    3.00   14.20 
  -6 -13   0   -5.60   14.70 
  -7 -13   0   15.30   19.00 
  -7  13   0   17.00   16.50 
   0 -14   0   21.80   16.20 
  -1  14   0  120.99   25.30 
   1 -14   0   76.79   24.20 
  -1 -14   0  102.39   26.80 
  -2 -14   0    4.80   13.80 
  -2  14   0   -0.80   12.30 
  -3  14   0   93.69   25.20 
  -3 -14   0  127.09   31.10 
  -4  14   0    8.60   12.10 
  -4 -14   0   -8.40   10.80 
  -5  14   0    5.80   13.60 
  -5 -14   0    3.50   14.10 
  -6 -14   0    7.00   15.00 
  -6  14   0   -8.20   15.70 
   0 -15   0   30.40   21.00 
  -1  15   0    7.20   13.30 
   1 -15   0   13.70   17.60 
  -1 -15   0    7.10   15.60 
  -2 -15   0    9.80   19.00 
  -2  15   0   29.80   18.00 
  -3 -15   0   22.00   18.20 
  -3  15   0   23.90   18.80 
  -4 -15   0  130.79   34.40 
  -4  15   0  134.29   32.20 
  -5  15   0   48.30   23.00 
  -5 -15   0   47.10   23.40 
   0 -16   0    3.50   16.10 
  -1 -16   0    6.30   17.30 
   1 -16   0  -10.30   15.80 
  -2  16   0   13.10   16.70 
  -2 -16   0    7.70   17.80 
  -3 -16   0    3.80   17.40 
  -3  16   0    0.80   16.80 
  -1   0   1    2.90    2.00 
  -1   0  -1    5.70    2.40 
   1   0   1    0.40    0.80 
  -1   0  -1    1.00    1.30 
  -2   0   1 1178.48   46.60 
  -2   0  -1 1141.49   50.89 
  -2   0   1 1121.39   50.29 
  -2   0  -1 1123.19   46.80 
  -3   0   1   -0.60    2.50 
  -3   0   1    0.00    3.10 
  -3   0  -1   -1.90    1.60 
  -3   0  -1   -1.90    3.40 
  -4   0  -1 2196.28   98.09 
  -4   0  -1 2035.30   87.59 
  -4   0   1 2313.87   98.49 
  -4   0   1 2205.28   89.09 
  -5   0  -1    1.40    5.90 
  -5   0   1    2.00    6.80 
  -5   0  -1   -0.50    2.80 
  -5   0   1   -0.80    3.40 
  -6   0   1  639.44   44.20 
  -6   0  -1  583.84   43.00 
  -7   0   1    8.30    9.60 
  -7   0  -1    1.10    9.10 
  -8   0   1  126.89   26.90 
  -8   0  -1  106.09   24.90 
  -9   0  -1    3.10   10.80 
  -9   0   1   -3.40   11.20 
 -10   0   1   19.80   16.00 
 -10   0  -1   36.20   19.10 
 -11   0   1   -1.10   17.00 
 -11   0  -1  -14.10   11.50 
   0   1  -1    1.30    1.30 
   0  -1   1    2.30    1.50 
   0  -1  -1    5.40    1.80 
  -1  -1  -1  303.17   15.80 
   1  -1   1  332.77   15.60 
  -1  -1  -1  306.17   16.30 
  -1  -1   1  286.17   14.90 
  -1  -1   1  283.37   15.50 
  -1   1  -1  304.07   15.50 
  -2  -1  -1  221.88   13.90 
  -2   1   1  192.58   13.90 
   2  -1   1  178.78   10.00 
  -2  -1  -1  191.98   14.30 
  -2  -1   1  190.28   13.70 
  -2   1  -1  222.68   14.60 
  -2  -1   1  182.78   12.70 
  -3   1   1  594.04   33.30 
  -3  -1  -1  575.94   33.50 
   3  -1   1  577.44   25.60 
  -3  -1  -1  625.24   31.20 
  -3  -1   1  578.94   33.00 
  -3   1  -1  695.63   34.80 
  -3  -1   1  575.84   30.70 
  -4   1   1  317.27   24.50 
   4  -1   1  311.27   15.70 
  -4  -1  -1  313.07   24.70 
  -4  -1  -1  321.17   21.00 
  -4  -1   1  344.07   21.90 
  -4   1  -1  287.57   24.10 
  -4  -1   1  299.57   24.20 
  -5  -1  -1  237.78   18.20 
   5  -1   1  214.78   12.90 
  -5   1   1  235.68   12.60 
  -5  -1  -1  208.88   26.00 
  -5   1   1  263.87   29.20 
  -5  -1   1  262.27   28.50 
  -5   1  -1  246.58   29.00 
  -5  -1   1  247.78   19.20 
  -6   1   1    3.30    7.20 
  -6  -1  -1   21.40    7.80 
  -6  -1  -1   11.30    9.90 
  -6  -1   1    7.20    7.70 
  -6   1  -1   12.20    8.70 
  -6  -1   1   12.60    7.10 
  -7   1   1    2.80    7.80 
  -7  -1  -1    9.70   10.40 
  -7   1  -1    5.50    8.80 
  -7  -1   1    7.50   11.10 
  -8   1   1   82.69   21.60 
  -8  -1  -1   95.99   22.90 
  -8  -1   1   32.50   15.20 
  -8   1  -1   79.39   22.00 
  -9   1   1  103.39   26.10 
  -9  -1  -1   71.39   21.80 
  -9  -1   1   57.89   20.70 
  -9   1  -1   60.39   20.30 
 -10  -1  -1  250.47   41.60 
 -10   1   1  148.49   32.40 
 -10   1  -1  255.47   44.80 
 -10  -1   1  246.58   42.30 
 -11  -1  -1    6.90   15.90 
 -11   1   1   12.80   18.10 
 -11   1  -1   33.50   20.30 
 -11  -1   1   -1.70   17.90 
   0  -2   1    1.30    1.90 
   0  -2  -1    3.70    3.00 
   0   2  -1    1.30    2.00 
   1   2  -1   87.09    7.10 
  -1  -2  -1   65.39    9.60 
  -1  -2  -1   88.39    8.80 
  -1  -2   1   64.39    8.70 
  -1   2  -1   80.29    9.40 
  -1   2  -1   78.29    7.40 
   1  -2  -1   65.69    6.70 
  -1  -2   1   78.79    7.60 
  -2  -2  -1 2229.88   93.79 
   2  -2   1 2351.66   88.59 
  -2  -2  -1 2250.77   96.09 
  -2   2   1 2435.66   93.99 
  -2  -2   1 2140.69   92.99 
  -2  -2   1 2186.28   94.79 
  -2   2  -1 2368.56   93.89 
  -3   2   1   80.79   12.30 
   3  -2   1  101.39    9.90 
  -3  -2  -1   76.19   12.70 
  -3  -2  -1  100.49   13.60 
  -3  -2   1   56.69   10.40 
  -3   2  -1   93.69   13.80 
  -3  -2   1  112.89   14.50 
  -4  -2  -1  808.42   48.20 
  -4   2   1  995.40   50.69 
  -4  -2  -1  881.41   47.40 
  -4  -2   1  917.81   49.30 
  -4   2  -1  937.11   50.09 
  -4  -2   1  971.60   48.50 
  -5  -2  -1    4.30    5.70 
  -5  -2  -1    6.90    6.40 
  -5   2   1    2.70    6.50 
  -5  -2   1   13.10    7.70 
  -5   2  -1   11.80    8.10 
  -5  -2   1    8.80    5.90 
  -6   2   1  470.25   38.80 
  -6  -2  -1  525.25   40.00 
  -6  -2  -1  556.84   34.50 
  -6   2  -1  551.54   40.70 
  -6  -2   1  474.95   33.50 
  -6  -2   1  560.04   40.80 
  -7  -2  -1  108.29   22.60 
  -7   2   1  139.49   26.90 
  -7   2  -1  149.19   27.40 
  -7  -2   1  125.99   24.20 
  -8   2   1   27.30   15.00 
  -8  -2  -1   22.80   12.30 
  -8   2  -1   43.80   16.80 
  -8  -2   1   48.80   18.80 
  -9  -2  -1   14.20   12.90 
  -9   2   1   12.60   13.50 
  -9  -2   1   20.50   15.80 
  -9   2  -1   45.70   19.30 
 -10   2   1    7.60   16.30 
 -10  -2  -1   24.80   18.80 
 -10   2  -1   38.00   19.70 
 -10  -2   1   67.29   25.50 
 -11   2   1   13.50   18.90 
 -11  -2  -1    6.80   17.60 
 -11   2  -1   -6.00   13.90 
 -11  -2   1    1.50   14.60 
   0  -3   1   -1.10    2.50 
   0  -3  -1    0.90    2.80 
   0   3  -1   -1.00    2.30 
  -1  -3  -1 1541.65   69.09 
   1   3  -1 1545.15   63.59 
  -1  -3  -1 1513.65   62.89 
  -1  -3   1 1545.05   61.09 
  -1   3  -1 1524.45   65.69 
  -1  -3   1 1480.85   67.69 
  -1   3  -1 1527.45   61.19 
   1   3   1 1541.35   60.49 
  -2  -3  -1  649.83   32.30 
   2  -3   1  624.54   28.90 
  -2  -3  -1  629.74   36.10 
  -2   3   1  675.23   32.20 
  -2   3  -1  591.64   33.40 
  -2  -3   1  608.94   34.80 
  -2   3  -1  625.54   31.30 
   2  -3  -1  589.94   27.90 
   3  -3   1  165.48   10.40 
  -3   3   1  173.68   18.90 
  -3  -3  -1  178.78   21.00 
  -3  -3  -1  210.08   20.80 
  -3  -3   1  184.88   21.20 
  -3  -3   1  154.28   17.40 
  -3   3  -1  170.98   18.30 
  -4   3   1  180.78   22.40 
  -4  -3  -1  194.38   23.00 
  -4  -3  -1  154.78   19.60 
  -4  -3   1  185.48   22.30 
  -4   3  -1  173.08   21.30 
  -4  -3   1  178.28   22.40 
  -5  -3  -1  429.46   33.00 
  -5  -3  -1  497.35   35.20 
  -5   3   1  498.95   35.90 
  -5   3  -1  473.15   35.40 
  -5  -3   1  477.25   35.10 
  -5  -3   1  554.24   35.40 
  -6  -3  -1   70.69   16.70 
  -6   3   1   77.49   17.90 
  -6  -3  -1   76.89   16.50 
  -6  -3   1   68.39   15.70 
  -6   3  -1   83.49   19.20 
  -6  -3   1   83.89   19.30 
  -7  -3  -1   47.30   15.60 
  -7   3   1   78.29   19.70 
  -7   3  -1   52.79   17.60 
  -7  -3   1   66.89   18.30 
  -8  -3  -1   45.00   17.20 
  -8   3   1  122.79   27.60 
  -8  -3   1  116.89   24.90 
  -8   3  -1  124.19   28.00 
  -9   3   1  134.19   30.50 
  -9  -3  -1  130.39   27.80 
  -9   3  -1  114.19   27.10 
  -9  -3   1   86.69   23.70 
 -10  -3  -1   36.70   18.70 
 -10   3   1  111.59   29.50 
 -10   3  -1  115.79   29.80 
 -10  -3   1   97.29   27.70 
 -11  -3  -1    4.10   14.70 
 -11   3   1   11.30   19.00 
 -11   3  -1    0.20   16.10 
 -11  -3   1   11.90   17.50 
   0   4  -1    0.90    3.10 
   0   4   1    2.70    2.90 
   0  -4   1    0.30    3.30 
   0  -4  -1    1.60    4.00 
  -1  -4  -1   69.19   12.70 
   1  -4   1   52.69    9.30 
   1   4  -1   56.89    8.60 
  -1   4  -1   63.19    9.90 
   1   4   1   61.09    7.40 
  -1   4  -1   70.09    7.10 
  -1  -4   1   52.49   10.80 
  -1  -4   1   62.19    6.60 
   1  -4  -1   46.80    8.60 
   2  -4   1 1347.87   58.69 
  -2   4   1 1414.66   59.59 
  -2  -4  -1 1297.37   66.29 
  -2  -4  -1 1326.37   59.49 
  -2   4  -1 1354.96   62.99 
   2  -4  -1 1351.96   57.69 
  -2   4  -1 1340.57   58.39 
  -2  -4   1 1303.07   65.39 
  -2  -4   1 1319.07   57.89 
   2   4   1 1306.07   54.19 
  -3   4   1  161.48   18.40 
  -3  -4  -1  151.58   21.30 
  -3  -4  -1  142.59   17.10 
   3  -4   1  122.69   10.50 
   3  -4  -1  131.59    9.30 
  -3   4  -1  154.68   17.90 
  -3  -4   1  114.99   14.90 
  -3  -4   1  147.49   20.80 
  -4  -4  -1  605.64   37.00 
  -4   4   1  594.24   36.90 
   4  -4   1  573.34   26.60 
  -4  -4  -1  580.44   39.70 
  -4  -4   1  616.14   39.50 
  -4  -4   1  550.04   35.60 
  -4   4  -1  616.54   37.70 
  -5  -4  -1  299.07   31.80 
  -5  -4  -1  337.17   35.40 
  -5   4   1  342.87   35.40 
  -5  -4   1  354.36   34.90 
  -5  -4   1  406.86   31.40 
  -5   4  -1  402.16   31.70 
  -6  -4  -1  661.83   45.50 
  -6  -4  -1  666.83   45.00 
  -6   4   1  611.44   45.60 
  -6  -4   1  666.93   45.00 
  -6   4  -1  646.64   46.50 
  -6  -4   1  677.93   46.00 
  -7   4   1   68.89   19.80 
  -7  -4  -1   42.30   15.20 
  -7  -4  -1   48.90   16.00 
  -7   4  -1   30.40   14.00 
  -7  -4   1   85.79   18.80 
  -7  -4   1   57.39   18.10 
  -8   4   1   76.79   22.80 
  -8  -4  -1   94.39   23.10 
  -8  -4   1  101.29   24.70 
  -8   4  -1  108.19   26.20 
  -9  -4  -1   48.90   20.80 
  -9   4   1   57.19   21.80 
  -9  -4   1   41.60   18.50 
  -9   4  -1   49.30   18.60 
 -10  -4  -1   11.70   15.10 
 -10   4   1    0.20   13.90 
 -10  -4   1   15.70   16.80 
 -10   4  -1    3.80   14.30 
 -10   4  -1   25.80   21.50 
 -11  -4  -1   -6.00   17.20 
 -11   4   1    1.50   16.40 
 -11   4  -1    3.00   15.00 
 -11  -4   1    1.50   18.60 
   0   5   1   -0.70    3.10 
   0   5  -1   -0.40    3.10 
   0  -5   1   11.60    5.90 
   0  -5  -1   -1.40    4.10 
  -1  -5  -1 1206.48   51.49 
   1   5  -1 1205.38   53.79 
   1  -5   1 1214.68   57.49 
  -1  -5  -1 1168.28   60.69 
   1   5   1 1221.68   51.69 
  -1   5  -1 1086.29   55.49 
  -1   5  -1 1161.58   48.60 
  -1  -5   1 1199.48   60.89 
   1  -5  -1 1139.39   56.59 
  -1  -5   1 1174.58   48.30 
   2   5  -1  323.87   20.50 
   2  -5   1  377.06   23.30 
  -2   5   1  345.37   21.10 
  -2  -5  -1  336.77   27.50 
   2  -5  -1  309.47   21.10 
  -2  -5   1  323.07   26.60 
  -2  -5   1  348.37   20.00 
  -2   5  -1  333.57   20.50 
  -2   5  -1  295.97   23.60 
   2   5   1  327.77   18.20 
   3  -5   1  213.58   16.90 
  -3   5   1  226.28   19.10 
  -3  -5  -1  264.87   20.20 
  -3  -5  -1  283.77   31.40 
  -3  -5   1  253.47   29.10 
  -3   5  -1  320.87   31.30 
   3  -5  -1  236.88   15.70 
  -3   5  -1  231.78   22.80 
  -4   5   1  310.07   29.60 
  -4  -5  -1  262.97   26.40 
   4  -5   1  259.77   16.80 
  -4  -5  -1  285.07   32.80 
  -4  -5   1  245.08   25.10 
  -4   5  -1  296.87   29.40 
  -4  -5   1  322.87   34.30 
  -5  -5  -1  248.28   31.50 
  -5   5   1  242.08   29.40 
  -5  -5  -1  275.67   30.50 
  -5  -5   1  286.17   30.40 
  -5   5  -1  223.38   28.70 
  -5  -5   1  310.87   34.00 
  -6  -5  -1    4.00    7.80 
  -6   5   1   12.50    9.80 
  -6  -5  -1   27.00   12.40 
  -6   5  -1   19.40   12.00 
  -6  -5   1   14.30    9.50 
  -6  -5   1   26.20   11.20 
  -7  -5  -1   33.50   15.20 
  -7  -5  -1    2.00   10.30 
  -7   5   1   27.30   15.10 
  -7  -5   1    7.40   10.50 
  -7   5  -1    7.00   11.60 
  -7  -5   1   14.70   11.60 
  -8  -5  -1   35.20   16.20 
  -8   5   1   18.20   14.40 
  -8   5  -1   30.90   15.20 
  -8  -5   1   27.20   14.70 
  -9   5   1   15.40   13.70 
  -9  -5  -1   20.60   15.50 
  -9   5  -1    9.30   17.70 
  -9  -5   1   36.70   18.20 
  -9   5  -1   18.70   15.90 
 -10   5   1   56.09   22.60 
 -10  -5  -1   66.19   23.60 
 -10   5  -1   86.99   27.20 
 -10   5  -1   69.79   28.10 
 -10  -5   1   90.19   27.80 
   0  -6  -1    1.80    4.80 
   0   6  -1    8.20    5.10 
   0  -6   1   -1.10    3.90 
   0   6   1    0.00    3.40 
   1  -6   1  159.28   20.00 
  -1   6   1  153.28   18.50 
   1   6  -1  191.98   15.50 
  -1  -6  -1  144.09   12.20 
  -1  -6  -1  177.68   23.40 
   1  -6  -1  169.18   20.10 
  -1   6  -1  157.98   11.10 
  -1  -6   1  175.58   23.50 
  -1   6  -1  149.59   18.10 
   1   6   1  161.88   16.10 
  -1  -6   1  187.68   11.00 
   2   6  -1  146.79   16.40 
  -2   6   1  213.48   16.00 
  -2  -6  -1  149.88   16.30 
  -2  -6  -1  159.98   24.30 
  -2  -6   1  189.68   24.40 
  -2   6  -1  171.28   14.30 
   2   6   1  191.78   13.90 
   2  -6  -1  185.18   19.90 
  -2   6  -1  148.39   20.30 
  -2  -6   1  211.98   14.40 
  -3  -6  -1  148.39   24.50 
  -3   6   1  125.09   16.70 
   3  -6   1  136.19   16.50 
  -3  -6  -1  130.39   16.80 
   3  -6  -1  149.49   16.00 
  -3   6  -1  131.39   17.10 
  -3  -6   1  155.58   23.70 
  -3   6  -1  179.18   23.90 
  -3  -6   1  134.79   15.90 
  -4  -6  -1  551.94   35.10 
  -4  -6  -1  519.35   40.60 
  -4   6   1  514.85   34.60 
  -4   6  -1  581.94   36.40 
  -4  -6   1  494.55   32.60 
  -4   6  -1  502.55   38.50 
  -4  -6   1  441.06   37.70 
  -5  -6  -1  384.06   41.40 
  -5   6   1  278.97   31.50 
  -5  -6  -1  284.87   30.50 
  -5   6  -1  294.77   36.00 
  -5   6  -1  285.77   33.30 
  -5  -6   1  278.27   33.80 
  -5  -6   1  268.67   29.00 
  -6   6   1  229.78   32.40 
  -6  -6  -1  182.28   27.40 
  -6  -6  -1  254.07   34.30 
  -6  -6   1  194.48   30.00 
  -6   6  -1  211.38   30.60 
  -6  -6   1  181.98   26.40 
  -6   6  -1  251.47   37.30 
  -7   6   1  179.58   30.40 
  -7  -6  -1  329.57   38.30 
  -7  -6  -1  165.68   28.10 
  -7   6  -1  205.58   35.60 
  -7  -6   1  237.98   32.40 
  -7   6  -1  190.98   30.60 
  -7  -6   1  234.38   33.50 
  -8  -6  -1   26.00   16.00 
  -8   6   1   30.90   17.90 
  -8   6  -1   26.30   18.10 
  -8   6  -1   23.90   16.10 
  -8  -6   1   25.70   14.90 
  -9   6   1   95.49   26.20 
  -9  -6  -1  121.29   27.80 
  -9  -6   1   44.20   20.00 
  -9   6  -1  115.09   31.60 
  -9   6  -1   81.89   25.90 
 -10   6   1   24.70   20.40 
 -10  -6  -1   15.10   16.50 
 -10   6  -1   24.30   23.10 
 -10   6  -1   25.30   19.50 
 -10  -6   1   59.19   23.20 
   0   7  -1    0.70    3.90 
   0  -7  -1   -0.40    4.60 
   0  -7   1    1.60    5.20 
   0   7   1    2.40    4.20 
   1   7  -1 1356.66   65.29 
  -1   7   1 1457.25   68.19 
   1  -7   1 1413.76   71.29 
  -1  -7  -1 1426.76   74.59 
  -1   7  -1 1287.47   67.59 
  -1  -7   1 1409.66   74.19 
   1   7   1 1435.96   63.89 
   1  -7  -1 1348.47   69.89 
  -1   7  -1 1398.26   57.89 
   2   7  -1  229.48   19.30 
   2  -7   1  234.78   25.40 
  -2   7   1  269.17   29.30 
  -2   7   1  240.28   18.30 
  -2  -7  -1  242.28   30.40 
  -2  -7  -1  240.58   18.30 
  -2  -7   1  292.67   34.60 
   2   7   1  254.77   18.10 
  -2  -7   1  233.28   16.20 
  -2   7  -1  259.47   18.10 
  -2   7  -1  266.87   27.80 
  -3   7   1  553.24   32.20 
  -3  -7  -1  483.55   39.30 
   3  -7   1  441.36   30.70 
  -3   7  -1  485.15   30.60 
   3  -7  -1  455.75   29.30 
  -3   7  -1  387.86   33.20 
  -3  -7   1  533.45   29.90 
  -3  -7   1  486.15   38.90 
  -4   7   1  156.08   22.20 
  -4  -7  -1  157.78   21.00 
  -4  -7  -1  152.48   26.30 
  -4  -7   1  157.88   19.60 
  -4  -7   1  158.88   26.80 
  -4   7  -1  174.38   23.10 
  -4   7  -1  133.79   23.00 
  -5  -7  -1  116.09   19.90 
  -5  -7  -1   91.19   21.70 
  -5   7   1   99.09   19.70 
  -5  -7   1  137.39   19.80 
  -5  -7   1  132.89   25.10 
  -5   7  -1  134.99   23.50 
  -5   7  -1  115.29   24.50 
  -6  -7  -1   64.69   17.20 
  -6  -7  -1   41.90   16.30 
  -6   7   1  115.49   23.20 
  -6  -7   1   84.09   18.70 
  -6   7  -1   79.99   19.70 
  -6  -7   1   71.39   18.90 
  -6   7  -1   61.89   18.80 
  -7  -7  -1   32.70   15.40 
  -7   7   1   35.30   16.00 
  -7  -7  -1   29.60   14.20 
  -7   7  -1   12.30   14.90 
  -7  -7   1   20.90   12.90 
  -7  -7   1    4.70   12.00 
  -7   7  -1   24.60   15.50 
  -8   7   1   34.30   17.30 
  -8  -7  -1    7.60   12.20 
  -8  -7  -1   -3.50   13.80 
  -8   7  -1   30.10   19.70 
  -8  -7   1   13.40   13.70 
  -8   7  -1   30.30   17.30 
  -9   7   1   27.80   18.50 
  -9  -7  -1   36.30   19.90 
  -9  -7   1   22.80   17.00 
  -9   7  -1   53.19   24.50 
  -9   7  -1   52.49   23.50 
 -10  -7  -1   37.20   22.50 
 -10   7   1   69.89   27.90 
 -10   7  -1   37.40   25.40 
 -10   7  -1   17.90   21.40 
 -10  -7   1   27.10   19.00 
   0   8   1    2.40    5.00 
   0  -8  -1   -1.90    5.30 
   0  -8   1    2.70    6.30 
   0   8  -1    0.90    5.50 
   1  -8   1  102.39   19.10 
  -1   8   1   87.19   16.40 
   1   8  -1  103.19   15.90 
  -1  -8  -1   81.49   17.80 
  -1   8  -1  102.69   11.00 
  -1   8  -1   63.39   13.80 
   1   8   1   90.99   14.00 
  -1  -8   1   61.89   16.50 
   1  -8  -1   63.69   15.10 
  -2   8   1  724.23   38.70 
   2   8  -1  732.73   41.40 
  -2   8   1  718.73   46.00 
   2  -8   1  797.12   47.10 
  -2  -8  -1  695.13   50.59 
  -2  -8  -1  727.93   38.60 
   2  -8  -1  772.92   45.30 
  -2   8  -1  735.53   37.70 
  -2  -8   1  755.92   37.00 
  -2  -8   1  783.12   52.69 
  -2   8  -1  685.63   45.60 
   2   8   1  751.52   39.30 
   3  -8   1  313.47   31.80 
  -3   8   1  439.16   34.20 
  -3  -8  -1  339.77   24.60 
  -3   8   1  353.46   26.10 
   3   8  -1  306.27   24.40 
  -3  -8  -1  344.77   41.10 
  -3  -8   1  340.57   40.40 
  -3  -8   1  299.67   22.70 
  -3   8  -1  393.86   40.60 
   3  -8  -1  375.06   26.90 
  -3   8  -1  300.67   24.60 
  -4  -8  -1   73.29   19.60 
  -4   8   1   86.49   17.40 
  -4  -8  -1   80.19   15.90 
  -4   8  -1  106.89   22.30 
  -4  -8   1   92.09   21.40 
  -4  -8   1   73.19   14.20 
  -4   8  -1  114.39   19.80 
  -5  -8  -1  396.96   36.90 
  -5   8   1  289.37   33.10 
  -5  -8  -1  266.77   38.70 
  -5   8  -1  437.86   42.00 
  -5   8  -1  284.37   38.30 
  -5  -8   1  360.26   43.80 
  -6   8   1  330.07   40.20 
  -6  -8  -1  326.97   36.30 
  -6  -8  -1  365.36   44.50 
  -6   8  -1  313.87   42.60 
  -6  -8   1  348.07   43.60 
  -6   8  -1  422.46   45.40 
  -6  -8   1  367.36   37.60 
  -7  -8  -1  341.17   39.60 
  -7   8   1  436.56   48.90 
  -7  -8  -1  276.57   40.70 
  -7   8  -1  481.05   55.59 
  -7  -8   1  337.67   44.10 
  -7   8  -1  367.86   46.90 
  -7  -8   1  316.07   37.80 
  -8  -8  -1   21.20   16.10 
  -8   8   1   10.50   15.20 
  -8  -8  -1   24.80   16.00 
  -8  -8   1   11.10   15.10 
  -8   8  -1   38.90   18.80 
  -8  -8   1   10.90   13.50 
  -8   8  -1    8.50   16.60 
  -9  -8  -1   32.60   18.60 
  -9   8   1   47.00   23.30 
  -9  -8   1   49.80   20.40 
  -9   8  -1   47.90   24.70 
  -9   8  -1   72.39   27.20 
 -10  -8  -1   17.30   18.10 
 -10   8   1   21.90   22.20 
 -10   8  -1    9.50   24.90 
 -10  -8   1   -2.00   16.70 
   0   9   1   -2.70    4.60 
   0   9  -1   -4.30    4.60 
   0  -9   1   -7.50    6.80 
   0  -9  -1   -2.60    6.30 
  -1  -9  -1  705.43   50.79 
  -1   9   1  681.43   44.40 
   1   9  -1  698.03   42.80 
   1  -9   1  774.52   49.99 
   1   9   1  696.63   41.30 
   1  -9  -1  750.82   48.70 
  -1   9  -1  766.12   46.80 
  -1  -9   1  755.92   52.39 
  -2   9   1  208.98   27.80 
  -2   9   1  212.18   21.40 
  -2  -9  -1  210.48   31.60 
   2  -9   1  256.47   31.00 
  -2  -9  -1  221.38   21.10 
   2   9  -1  242.68   25.80 
  -2   9  -1  219.48   28.50 
   2   9   1  183.88   20.80 
  -2  -9   1  193.08   30.90 
   2  -9  -1  230.68   28.20 
  -3   9   1  360.06   39.00 
  -3  -9  -1  448.16   29.10 
   3  -9   1  438.96   32.70 
  -3  -9  -1  422.76   46.30 
   3   9  -1  381.36   28.90 
  -3   9   1  386.56   28.60 
   3  -9  -1  378.06   30.00 
  -3  -9   1  337.17   42.20 
  -3   9  -1  425.16   44.30 
  -4  -9  -1   31.50   14.10 
  -4   9   1   56.59   17.50 
  -4  -9  -1   34.50   11.20 
  -4   9   1   49.40   14.30 
  -4  -9   1   49.00   17.10 
  -4   9  -1   24.80   13.70 
  -5   9   1   66.19   18.30 
  -5  -9  -1   86.69   18.20 
  -5  -9  -1   44.70   17.50 
  -5   9   1  107.49   25.10 
  -5  -9   1   93.09   23.60 
  -5   9  -1   71.39   19.80 
  -6  -9  -1  171.48   31.70 
  -6  -9  -1  134.49   23.30 
  -6   9   1  157.38   32.70 
  -6   9   1  153.78   27.60 
  -6  -9   1  174.68   33.00 
  -6   9  -1  198.88   35.50 
  -7  -9  -1   -7.80    9.30 
  -7   9   1   -5.60   13.80 
  -7  -9  -1   12.60   13.20 
  -7   9   1    1.10   12.50 
  -7   9  -1   11.20   12.80 
  -7  -9   1    0.70   10.60 
  -8  -9  -1   32.00   18.10 
  -8  -9  -1   30.20   16.40 
  -8   9   1   -3.10   14.80 
  -8   9   1   15.00   17.00 
  -8   9  -1   48.80   21.60 
  -8  -9   1   24.30   18.60 
  -9   9   1   30.00   36.50 
  -9  -9  -1   22.10   18.50 
  -9   9   1   50.89   25.90 
  -9   9  -1   22.80   21.30 
   0 -10  -1   -2.20    6.90 
   0 -10   1   -8.00    5.40 
   0  10  -1    6.30    7.70 
   0  10   1   -0.50    6.60 
  -1 -10  -1  198.98   31.50 
   1 -10   1  305.27   36.60 
  -1  10   1  202.18   26.90 
   1  10  -1  246.08   27.60 
   1 -10  -1  244.38   32.60 
  -1 -10   1  270.37   37.40 
  -1  10  -1  206.48   28.80 
   1  10   1  246.18   26.60 
  -2  10   1   75.49   17.70 
   2  10  -1   55.49   13.90 
  -2 -10  -1   68.19   19.80 
   2 -10   1   96.99   20.60 
   2 -10  -1   94.39   19.70 
  -2  10  -1   68.29   17.80 
  -2 -10   1  138.59   27.10 
   3 -10   1   76.19   17.10 
  -3 -10  -1   56.39   18.40 
  -3  10   1   68.19   18.10 
  -3  10  -1   62.29   17.70 
  -3 -10   1   58.39   18.10 
   3 -10  -1   56.69   17.40 
  -4  10   1   81.99   20.30 
  -4 -10  -1   35.70   16.10 
  -4 -10   1   70.99   21.10 
  -4  10  -1   53.19   17.50 
  -5 -10  -1  398.36   50.09 
  -5  10   1  349.37   46.10 
  -5  10  -1  382.06   47.40 
  -5 -10   1  359.36   46.50 
  -6  10   1   14.30   13.60 
  -6 -10  -1   45.60   19.10 
  -6  10  -1   34.20   19.20 
  -6 -10   1   20.40   14.40 
  -7  10   1  143.39   31.60 
  -7 -10  -1  179.18   33.80 
  -7  10  -1  248.68   43.30 
  -7 -10   1  146.59   31.30 
  -8 -10  -1   12.30   14.40 
  -8  10   1    6.50   16.70 
  -8  10  -1   26.10   20.40 
  -8 -10   1    8.50   17.00 
  -9  10   1  101.89   32.00 
  -9  10  -1  202.18   44.50 
   0  11  -1   -5.30    6.80 
   0 -11   1    9.70   10.10 
   0 -11  -1    7.80   10.20 
   0  11   1   -2.70    7.20 
  -1  11   1  535.45   41.50 
  -1 -11  -1  576.14   57.69 
   1 -11   1  681.23   49.50 
   1  11  -1  508.75   39.00 
   1  11   1  613.04   40.10 
  -1 -11   1  596.54   59.49 
   1 -11  -1  550.84   45.10 
  -1  11  -1  634.04   45.20 
  -2 -11  -1  128.89   28.00 
   2  11  -1  110.59   19.20 
   2 -11   1  124.09   25.40 
  -2  11   1  176.08   26.80 
   2 -11  -1  145.99   25.80 
  -2  11  -1  103.59   21.10 
  -2 -11   1  128.29   27.10 
  -3  11   1  201.18   31.00 
  -3 -11  -1  208.48   35.10 
  -3  11  -1  265.17   36.80 
  -3 -11   1  257.57   39.50 
  -4 -11  -1   96.09   25.60 
  -4  11   1   90.69   21.90 
  -4  11  -1   46.10   17.30 
  -4 -11   1   44.90   19.30 
  -5  11   1   29.00   15.30 
  -5 -11  -1   29.30   16.90 
  -5 -11   1   40.30   17.60 
  -5  11  -1   20.40   12.50 
  -6  11   1  198.08   36.20 
  -6 -11  -1  105.69   28.60 
  -6  11  -1   38.30   19.40 
  -6 -11   1   68.29   23.20 
  -7  11   1    8.00   13.80 
  -7 -11  -1    5.90   13.40 
  -7 -11   1   13.50   14.20 
  -7  11  -1  -14.40   12.80 
  -8 -11  -1   -1.50   15.00 
  -8  11   1   -6.40   15.10 
  -8 -11   1   22.60   18.90 
  -8  11  -1   16.00   19.60 
   0  12  -1   -3.40    7.20 
   0 -12   1    5.60   10.80 
   0  12   1   -7.30    7.00 
   0 -12  -1    5.30   12.10 
   1  12  -1   64.19   16.40 
  -1 -12  -1   97.49   24.80 
  -1  12   1   52.29   16.00 
   1 -12   1   26.60   15.10 
  -1 -12   1   78.79   22.80 
   1 -12  -1   81.29   21.60 
  -1  12  -1   21.60   12.50 
  -2  12   1   38.40   14.30 
   2 -12   1   79.69   20.90 
  -2 -12  -1   56.39   19.80 
  -2  12  -1   37.20   14.40 
   2 -12  -1   53.99   17.60 
  -2 -12   1   46.90   18.40 
  -3  12   1  111.69   23.70 
  -3 -12  -1  101.09   26.80 
  -3 -12   1   86.99   25.10 
  -3  12  -1   77.99   20.50 
  -4 -12  -1   25.40   15.70 
  -4  12   1   30.70   17.40 
  -4 -12   1   15.60   14.20 
  -4  12  -1   10.10   11.90 
  -5 -12  -1  308.47   46.70 
  -5  12   1  350.96   48.10 
  -5  12  -1  312.57   45.60 
  -5 -12   1  295.87   45.80 
  -6  12   1   24.50   18.00 
  -6 -12  -1    1.00   12.60 
  -6 -12   1   44.00   20.00 
  -6  12  -1   17.30   15.80 
  -7  12   1   77.89   27.80 
  -7 -12  -1  146.09   32.50 
  -7  12  -1  131.79   35.40 
  -7 -12   1  108.99   29.50 
   0 -13  -1    7.60   12.70 
   0  13  -1   -3.40    8.30 
   0  13   1   -1.40    9.80 
   0 -13   1   -5.50   10.60 
  -1 -13  -1  336.47   46.60 
   1 -13   1  371.76   46.40 
   1  13  -1  330.47   38.50 
  -1  13   1  409.76   43.30 
  -1  13  -1  333.37   40.40 
  -1 -13   1  419.66   51.59 
   1 -13  -1  376.46   46.10 
  -2  13   1  109.89   24.50 
  -2 -13  -1  166.38   33.50 
   2 -13   1  139.69   29.50 
  -2 -13   1  118.29   28.50 
  -2  13  -1   96.69   24.50 
   2 -13  -1   95.89   23.60 
  -3 -13  -1  149.88   33.10 
  -3  13   1  142.79   28.50 
  -3  13  -1  215.38   35.10 
  -3 -13   1  156.78   32.50 
  -4  13   1   37.10   17.10 
  -4 -13  -1   21.50   14.50 
  -4  13  -1   35.80   17.40 
  -4 -13   1   19.10   15.60 
  -5 -13  -1   13.10   15.90 
  -5  13   1   23.70   15.60 
  -5 -13   1   19.60   17.40 
  -5  13  -1    1.80   13.20 
  -6  13   1   46.90   21.70 
  -6 -13  -1   46.10   21.00 
  -6 -13   1   33.10   19.20 
  -6  13  -1  112.89   29.30 
  -7  13   1   17.50   18.20 
  -7 -13  -1   24.40   17.30 
  -7  13  -1    8.80   15.60 
  -7 -13   1    3.60   16.30 
   0 -14  -1    2.60   12.60 
   0  14  -1   -3.90   11.10 
   0 -14   1    5.10   13.80 
   1 -14   1   22.00   18.40 
  -1 -14  -1   49.99   20.80 
  -1  14   1   28.40   16.00 
  -1  14  -1   18.30   14.00 
   1 -14  -1   23.50   16.40 
  -1 -14   1   67.89   22.70 
  -2  14   1    9.50   13.20 
  -2 -14  -1   13.20   15.60 
  -2 -14   1    9.40   14.70 
  -2  14  -1   11.10   13.10 
  -3 -14  -1   54.89   21.40 
  -3  14   1   85.49   25.40 
  -3 -14   1    7.00   15.20 
  -3  14  -1   19.00   13.80 
  -4 -14  -1   -2.80   13.10 
  -4  14   1   -8.60   11.60 
  -4  14  -1    4.40   14.30 
  -4 -14   1   -6.00   12.80 
  -5  14   1  100.59   29.10 
  -5 -14  -1   84.09   28.10 
  -5  14  -1   73.39   26.70 
  -5 -14   1   24.50   18.70 
  -6  14   1   -3.30   16.60 
  -6 -14  -1   -0.40   13.70 
  -6 -14   1   -9.30   13.20 
  -6  14  -1   29.70   23.20 
   0 -15   1   -3.20   12.80 
   0 -15  -1   -6.20   12.40 
   1 -15   1  188.38   36.80 
  -1 -15  -1  189.18   38.20 
   1 -15  -1  173.48   35.50 
  -1  15  -1  209.78   34.80 
  -1 -15   1  204.68   39.50 
  -2  15   1   49.60   20.00 
  -2 -15  -1   27.50   20.30 
  -2 -15   1   68.79   25.10 
  -2  15  -1   39.50   19.40 
  -3 -15  -1   45.50   23.90 
  -3  15   1   61.49   22.70 
  -3  15  -1   76.49   25.50 
  -3 -15   1   64.79   26.30 
  -4 -15  -1   21.40   18.80 
  -4  15   1   42.50   20.10 
  -4  15  -1   53.39   24.80 
  -4 -15   1   13.30   17.20 
  -5  15   1    2.60   16.00 
  -5  15  -1   11.30   15.60 
   0 -16  -1    9.30   17.60 
   0 -16   1    2.30   17.70 
  -1 -16  -1   34.90   22.20 
   1 -16   1   19.20   19.70 
  -1 -16   1   10.80   19.50 
   1 -16  -1   23.60   20.30 
  -2 -16  -1   -4.00   12.60 
  -2  16  -1   -0.40   15.60 
  -2 -16   1    4.70   14.90 
  -3  16   1   19.40   18.70 
  -3 -16  -1   19.20   19.50 
  -3 -16   1   19.80   19.00 
  -3  16  -1   24.30   18.30 
   0   0   2  292.27   15.20 
  -1   0   2    0.40    1.50 
  -1   0  -2   -1.50    1.80 
  -1   0  -2    0.30    1.20 
   1   0   2    3.00    2.10 
  -2   0   2 1128.59   52.69 
  -2   0  -2 1269.17   53.89 
  -2   0   2 1121.59   49.90 
  -2   0  -2 1311.17   50.49 
  -3   0   2    1.10    2.50 
  -3   0   2   -0.60    3.50 
  -3   0  -2   -0.10    1.90 
   3   0   2    2.70    2.90 
  -3   0  -2    0.60    3.70 
  -4   0   2 2769.72  114.79 
  -4   0  -2 3052.09  124.99 
  -4   0  -2 2820.52  114.89 
  -4   0   2 2805.72  123.19 
   4   0   2 2905.61  114.89 
   5   0   2   -1.80    3.50 
  -5   0  -2   -1.50    5.00 
  -5   0   2    0.50    5.10 
  -5   0   2    2.70    4.20 
  -6   0  -2   34.50   12.90 
  -6   0   2   60.39   16.30 
  -7   0   2    4.60    9.10 
  -7   0  -2    0.40    7.80 
  -8   0  -2  231.28   34.40 
  -8   0   2  196.88   32.20 
  -9   0  -2   -6.20   11.70 
  -9   0   2  -12.10   11.20 
 -10   0  -2   35.40   18.70 
 -10   0   2   41.60   21.60 
 -11   0  -2   -9.60   14.50 
 -11   0   2  -17.70   11.00 
   0   1  -2   43.30    5.80 
   0   1   2   45.40    5.80 
   0  -1   2   50.29    6.50 
  -1  -1  -2  170.28   11.90 
  -1  -1  -2  190.88   12.50 
  -1   1   2  216.78   11.70 
   1  -1   2  190.58   11.30 
  -1   1  -2  182.08   11.90 
  -1   1  -2  182.18   11.30 
  -1  -1   2  205.38   11.50 
  -1  -1   2  206.18   12.70 
  -2  -1  -2  103.09   12.20 
  -2   1   2   69.59    6.20 
  -2  -1  -2   84.79   10.00 
  -2  -1  -2   66.69    5.60 
   2  -1   2   96.39    7.40 
  -2   1   2   90.79   11.30 
  -2  -1   2   91.29   10.80 
  -2   1  -2  100.39   11.40 
  -2  -1   2  101.29   10.50 
  -2   1  -2   95.49   10.40 
  -3  -1  -2  269.87   17.40 
  -3  -1  -2  232.58   18.80 
  -3   1   2  249.38   19.10 
   3  -1   2  252.87   14.70 
  -3   1   2  244.98   13.70 
  -3  -1   2  256.37   17.00 
  -3  -1   2  289.27   20.00 
  -3   1  -2  283.57   20.50 
  -4  -1  -2  646.14   32.70 
  -4   1   2  612.24   36.90 
   4  -1   2  534.75   27.80 
  -4   1   2  556.74   27.00 
  -4  -1  -2  557.74   36.00 
  -4  -1   2  674.93   33.50 
  -4   1  -2  614.14   37.40 
  -4  -1   2  634.54   37.20 
  -5   1   2   80.69   16.40 
  -5  -1  -2   76.79   12.50 
  -5  -1  -2  123.59   20.50 
  -5  -1   2  143.39   17.10 
  -5   1  -2  124.79   20.00 
  -5  -1   2  107.99   18.80 
  -6   1   2  759.82   50.39 
  -6  -1  -2  711.83   48.70 
  -6  -1  -2  731.93   40.30 
  -6  -1   2  751.32   41.40 
  -6   1  -2  744.53   50.09 
  -6  -1   2  825.62   51.49 
  -7   1   2  372.56   42.90 
  -7  -1  -2  326.57   38.60 
  -7  -1   2  344.57   40.10 
  -7   1  -2  490.75   49.60 
  -8   1   2  519.45   53.89 
  -8  -1  -2  494.45   52.49 
  -8  -1   2  541.15   55.89 
  -8   1  -2  450.95   51.09 
  -9   1   2   -5.50    9.30 
  -9  -1  -2   -0.90   11.00 
  -9  -1   2  -12.50   11.60 
  -9   1  -2   -3.20   10.20 
 -10  -1  -2  141.99   31.60 
 -10   1   2  120.49   29.20 
 -10  -1   2  150.88   35.50 
 -10   1  -2   74.59   24.10 
 -11  -1  -2   13.00   16.60 
 -11   1   2   47.60   25.90 
 -11  -1   2   50.99   27.00 
 -11   1  -2   34.80   20.60 
   0   2  -2 2506.65  100.99 
   0  -2  -2 2598.24  101.29 
   0  -2   2 2486.05  101.19 
  -1  -2  -2   41.90    7.70 
   1  -2   2   46.10    6.30 
  -1  -2  -2   46.50    6.80 
  -1  -2   2   54.09    8.00 
  -1  -2   2   47.90    5.70 
  -1   2  -2   56.49    6.20 
  -1   2  -2   68.89    9.00 
  -2   2   2 4294.87  165.38 
  -2  -2  -2 4080.99  165.48 
  -2   2   2 4400.76  160.28 
   2  -2   2 4260.47  160.98 
  -2  -2  -2 4264.97  166.98 
  -2  -2   2 4067.49  165.48 
  -2   2  -2 4049.09  165.08 
  -2  -2   2 4089.79  163.78 
  -2   2  -2 4102.29  164.08 
  -3  -2  -2    7.50    4.60 
  -3  -2  -2   12.10    6.00 
   3  -2   2   11.20    3.30 
  -3   2   2    6.90    4.90 
  -3   2   2   14.60    3.10 
  -3  -2   2   15.70    5.80 
  -3   2  -2   11.60    6.10 
  -3   2  -2   13.90    5.70 
  -3  -2   2    6.20    4.50 
  -4   2   2   94.39   15.30 
  -4  -2  -2   82.09   13.40 
  -4  -2  -2   86.29   15.10 
   4  -2   2   92.79    7.40 
  -4   2  -2   87.79   15.00 
  -4  -2   2  104.39   16.00 
  -4  -2   2   90.99   13.60 
  -5  -2  -2   52.69   13.40 
  -5   2   2   43.90   13.10 
  -5  -2  -2   46.70   10.80 
  -5   2  -2   36.50   11.40 
  -5  -2   2   26.70    9.10 
  -5  -2   2   44.90   12.80 
  -6  -2  -2  101.39   16.10 
  -6   2   2   81.09   17.60 
  -6  -2  -2  106.19   20.40 
  -6   2  -2  103.69   20.60 
  -6  -2   2   85.39   18.90 
  -6  -2   2  100.29   17.00 
  -7   2   2   12.10   10.00 
  -7  -2  -2    9.10    9.20 
  -7  -2   2    5.30   10.20 
  -7   2  -2    2.90    9.00 
  -8   2   2   10.50   12.40 
  -8  -2  -2    4.10   11.50 
  -8   2  -2   -1.40   10.10 
  -8  -2   2   18.00   13.60 
  -9  -2  -2   10.70   13.10 
  -9   2   2   24.20   15.10 
  -9  -2   2   11.00   12.80 
  -9   2  -2   12.40   13.60 
 -10   2   2   16.00   14.80 
 -10  -2  -2   11.70   17.40 
 -10  -2   2   48.70   22.90 
 -10   2  -2   13.70   13.60 
 -11   2   2   -6.20   15.40 
 -11  -2  -2    6.70   13.50 
 -11   2  -2   34.80   23.30 
 -11  -2   2   19.40   22.00 
   0  -3  -2  670.63   33.70 
   0  -3   2  638.84   32.70 
   0   3  -2  632.94   32.00 
   1   3  -2  455.35   24.10 
  -1  -3  -2  483.75   27.50 
  -1  -3  -2  470.35   23.70 
  -1   3  -2  437.56   24.80 
  -1  -3   2  414.56   25.50 
  -1  -3   2  394.36   20.20 
  -1   3  -2  449.36   20.20 
  -2   3   2  229.08   16.30 
   2  -3   2  197.18   13.30 
  -2  -3  -2  193.08   20.70 
  -2  -3  -2  185.88   15.10 
  -2   3  -2  231.78   15.10 
   2  -3  -2  205.08   12.60 
  -2  -3   2  206.38   17.00 
  -2   3  -2  194.98   16.30 
  -3   3   2  880.91   43.90 
  -3   3   2  830.72   35.10 
  -3  -3  -2  794.52   43.20 
   3  -3   2  818.92   36.60 
  -3  -3  -2  839.62   45.60 
  -3   3  -2  794.82   42.40 
  -3  -3   2  807.52   42.10 
  -3  -3   2  852.31   45.00 
  -3   3  -2  794.62   43.40 
  -4   3   2  459.45   31.70 
  -4  -3  -2  467.15   32.70 
  -4  -3  -2  475.95   32.40 
   4  -3   2  511.55   23.10 
  -4  -3   2  485.85   31.70 
  -4  -3   2  445.56   31.60 
  -4   3  -2  476.75   32.10 
  -4   3  -2  450.45   32.00 
  -5   3   2   48.80   13.70 
  -5  -3  -2   11.20    7.00 
  -5  -3  -2   12.70    7.70 
  -5   3  -2   23.30    9.70 
  -5  -3   2   33.40   10.30 
  -5  -3   2   15.60    7.70 
  -6  -3  -2  681.43   43.80 
  -6  -3  -2  699.03   47.30 
  -6   3   2  728.73   49.10 
  -6  -3   2  690.23   44.50 
  -6   3  -2  668.53   47.60 
  -6  -3   2  733.33   47.70 
  -7   3   2   48.40   15.90 
  -7  -3  -2   51.39   17.80 
  -7   3  -2   68.19   19.70 
  -7  -3   2   72.59   19.20 
  -8  -3  -2  320.87   42.60 
  -8   3   2  271.57   39.50 
  -8  -3   2  329.37   42.30 
  -8   3  -2  345.97   45.30 
  -9  -3  -2   -2.20   11.00 
  -9   3   2   -8.60   10.40 
  -9  -3   2  -11.70   12.40 
  -9   3  -2    2.10   17.00 
  -9   3  -2    1.90   14.10 
 -10   3   2   51.89   19.80 
 -10  -3  -2  110.59   31.50 
 -10   3  -2   47.60   19.80 
 -10  -3   2   72.79   26.10 
 -11  -3  -2   44.90   22.90 
 -11   3   2   41.00   22.80 
 -11  -3   2    7.10   16.20 
 -11   3  -2   31.10   22.30 
   0  -4  -2  532.35   30.20 
   0  -4   2  492.15   29.00 
   0   4  -2  461.85   27.30 
   1  -4   2   99.69   12.70 
   1   4  -2   80.59   11.00 
  -1  -4  -2   90.19   14.20 
  -1  -4  -2   99.59   11.40 
  -1  -4   2   85.69    6.80 
   1   4   2   88.39    7.50 
   1  -4  -2  125.39   14.20 
  -1   4  -2   95.09    7.00 
  -1   4  -2  100.29   13.40 
  -1  -4   2  120.89   16.10 
  -2  -4  -2 1724.53   76.79 
   2  -4   2 1545.15   67.19 
  -2  -4  -2 1558.54   68.99 
  -2   4   2 1556.04   68.59 
  -2  -4   2 1523.15   65.99 
  -2   4  -2 1508.55   70.99 
   2  -4  -2 1581.14   66.19 
  -2  -4   2 1605.94   73.89 
  -2   4  -2 1466.75   65.89 
  -3  -4  -2   81.69   13.20 
   3  -4   2  115.49   12.10 
  -3   4   2   92.49   14.00 
  -3  -4  -2   83.39   16.20 
  -3  -4   2   76.59   14.30 
  -3  -4   2  117.79   14.50 
   3  -4  -2   74.99    8.40 
  -3   4  -2  109.59   16.90 
  -3   4  -2   86.49   13.30 
  -4  -4  -2 1231.08   69.09 
  -4   4   2 1383.66   53.99 
   4  -4   2 1329.07   56.99 
  -4  -4  -2 1410.96   67.99 
  -4   4   2 1353.36   67.49 
  -4  -4   2 1354.16   66.19 
  -4   4  -2 1344.17   69.19 
  -4  -4   2 1303.67   69.19 
  -4   4  -2 1380.66   67.29 
  -5   4   2   15.70    8.50 
  -5  -4  -2   -8.20    4.30 
  -5  -4  -2   -6.00    3.70 
  -5  -4   2   -0.10    6.50 
  -5   4  -2   -1.70    5.70 
  -5  -4   2   -0.60    5.40 
  -5   4  -2   10.50    8.30 
  -6   4   2   75.29   19.30 
  -6  -4  -2   54.79   15.40 
  -6  -4  -2   62.49   16.20 
  -6   4  -2   38.20   14.70 
  -6   4  -2   55.79   16.60 
  -6  -4   2   45.60   14.30 
  -6  -4   2   37.90   14.30 
  -7  -4  -2  149.49   27.30 
  -7  -4  -2  141.59   23.30 
  -7   4   2  170.78   29.60 
  -7   4  -2  112.69   23.80 
  -7   4  -2  144.39   28.80 
  -7  -4   2  131.59   22.80 
  -7  -4   2  164.08   28.50 
  -8  -4  -2  206.28   35.10 
  -8   4   2  221.28   35.60 
  -8  -4   2  240.78   36.10 
  -8   4  -2  242.68   38.60 
  -8   4  -2  288.67   41.20 
  -9  -4  -2   73.29   21.80 
  -9   4   2   47.80   19.70 
  -9   4  -2   73.29   25.00 
  -9   4  -2  107.69   28.50 
  -9  -4   2   94.59   24.90 
 -10  -4  -2   47.60   21.30 
 -10   4   2   34.50   21.10 
 -10  -4   2    8.00   14.10 
 -10   4  -2   50.39   24.00 
 -11  -4  -2    5.50   17.70 
   0  -5   2  199.98   21.80 
   0   5  -2  145.79   17.20 
   0  -5  -2  162.08   19.60 
   1  -5   2   20.40    6.70 
  -1  -5  -2   10.40    6.70 
   1   5  -2   18.30    6.60 
  -1  -5  -2   22.80    6.10 
  -1  -5   2   20.60    3.80 
  -1   5  -2   14.60    6.40 
   1   5   2   28.10    5.70 
   1  -5  -2   41.40    9.00 
  -1   5  -2   29.90    4.50 
  -1  -5   2   11.80    6.20 
  -2  -5  -2   64.69   10.60 
  -2  -5  -2   61.89   13.50 
  -2   5   2   89.69   12.80 
   2   5  -2   62.39   10.80 
  -2   5  -2   64.39   12.60 
  -2   5  -2   73.99   10.10 
   2   5   2   66.59    7.40 
  -2  -5   2   95.59   10.70 
  -2  -5   2   97.49   16.60 
   2  -5  -2   55.99    9.60 
   3  -5   2  195.68   15.70 
  -3  -5  -2  199.58   21.50 
  -3  -5  -2  164.38   23.80 
  -3   5   2  203.58   22.70 
   3  -5  -2  200.18   13.90 
  -3  -5   2  185.08   19.00 
  -3   5  -2  172.28   19.30 
  -3  -5   2  244.48   28.60 
  -3   5  -2  202.58   23.90 
   4  -5   2  118.29   12.80 
  -4   5   2   73.79   14.80 
  -4  -5  -2   78.59   17.60 
  -4   5   2   86.29    9.20 
  -4  -5  -2  122.29   18.90 
  -4   5  -2   90.29   17.50 
  -4   5  -2   77.19   15.20 
  -4  -5   2   88.09   14.80 
  -4  -5   2   89.29   18.00 
  -5   5   2  448.96   35.10 
  -5  -5  -2  631.74   42.50 
  -5  -5  -2  496.45   36.00 
  -5  -5   2  499.45   35.10 
  -5   5  -2  440.96   35.40 
  -5   5  -2  489.35   38.80 
  -5  -5   2  430.86   36.40 
  -6   5   2  185.58   28.70 
  -6  -5  -2  192.38   27.90 
  -6  -5  -2  245.58   31.50 
  -6  -5   2  150.08   24.40 
  -6   5  -2  140.79   24.90 
  -6  -5   2  165.28   26.10 
  -6   5  -2  223.28   33.20 
  -7  -5  -2  306.17   37.10 
  -7  -5  -2  315.97   38.90 
  -7   5   2  273.97   38.50 
  -7   5  -2  289.47   39.40 
  -7   5  -2  365.86   45.70 
  -7  -5   2  258.27   34.20 
  -7  -5   2  232.58   32.60 
  -8   5   2  430.56   50.09 
  -8  -5  -2  465.45   49.70 
  -8   5  -2  503.95   56.99 
  -8  -5   2  406.96   47.00 
  -8   5  -2  372.06   47.90 
  -9  -5  -2    7.30   11.70 
  -9   5   2    4.60   13.20 
  -9   5  -2   -3.10   12.60 
  -9   5  -2    3.10   16.30 
  -9  -5   2   -2.20   11.70 
 -10   5   2   97.19   28.80 
 -10  -5  -2  119.29   30.80 
 -10   5  -2   98.39   30.80 
 -10  -5   2   71.99   24.30 
 -10   5  -2   83.19   28.60 
   0  -6  -2 3688.23  155.58 
   0   6  -2 3726.43  151.18 
   0  -6   2 3611.94  155.28 
   0   6   2 3595.24  147.69 
   1  -6   2   84.09   15.10 
   1   6  -2  111.89   15.50 
  -1  -6  -2   84.19   16.90 
  -1  -6   2   82.99    6.30 
   1  -6  -2   92.79   14.70 
  -1   6  -2   84.99    7.00 
   1   6   2   99.69   11.70 
  -1   6  -2  107.59   16.90 
  -1  -6   2  128.99   20.30 
  -2  -6  -2  658.13   34.30 
  -2   6   2  614.44   33.90 
  -2  -6  -2  599.74   41.80 
   2   6  -2  621.14   34.70 
  -2  -6   2  584.64   40.60 
  -2   6  -2  605.44   37.80 
  -2  -6   2  594.64   29.80 
  -2   6  -2  606.54   31.00 
   2  -6  -2  579.94   34.10 
   2   6   2  605.24   29.20 
  -3  -6  -2    6.30    6.40 
  -3  -6  -2    2.00    4.30 
   3  -6   2   -2.70    4.10 
  -3   6   2    4.70    4.90 
  -3   6  -2    2.90    5.40 
  -3   6  -2    3.70    6.20 
  -3  -6   2   -1.90    3.90 
   3  -6  -2    0.30    3.50 
  -3  -6   2    4.50    6.80 
  -4  -6  -2    9.50    6.20 
  -4   6   2   17.00    8.20 
   4  -6   2   23.30    7.30 
  -4  -6  -2   18.80   10.80 
  -4  -6   2    2.00    4.70 
  -4  -6   2    2.90    7.30 
  -4   6  -2   26.50   10.30 
  -4   6  -2   13.40    8.60 
  -5  -6  -2   65.49   15.90 
  -5  -6  -2   54.59   16.20 
  -5   6   2   17.70    9.10 
  -5   6  -2   36.10   12.80 
  -5  -6   2   45.40   12.70 
  -5  -6   2   30.20   12.50 
  -5   6  -2   30.90   13.70 
  -6  -6  -2   59.89   17.60 
  -6  -6  -2   58.89   16.10 
  -6   6   2   50.99   15.30 
  -6   6  -2   47.40   16.50 
  -6   6  -2   67.59   18.30 
  -6  -6   2   90.39   20.80 
  -6  -6   2   66.69   16.80 
  -7  -6  -2   28.70   14.60 
  -7   6   2   23.60   13.00 
  -7  -6  -2    7.30   11.90 
  -7  -6   2   23.80   12.80 
  -7  -6   2   13.70   12.30 
  -7   6  -2   11.30   12.70 
  -7   6  -2    0.70   11.00 
  -8   6   2   15.60   14.00 
  -8  -6  -2    3.40   12.60 
  -8  -6   2   21.90   15.30 
  -8   6  -2    7.70   14.40 
  -8   6  -2   16.50   16.20 
  -9  -6  -2   70.09   24.30 
  -9   6   2  146.39   34.20 
  -9   6  -2  125.49   31.20 
  -9  -6   2   90.69   24.60 
  -9   6  -2   70.59   25.90 
 -10  -6  -2    0.40   17.50 
 -10   6   2    1.20   15.40 
 -10   6  -2    8.30   18.30 
 -10   6  -2    9.10   20.70 
 -10  -6   2   10.70   17.00 
   0   7  -2  352.66   26.40 
   0  -7   2  352.16   29.40 
   0  -7  -2  381.16   29.80 
   0   7   2  325.77   23.70 
   1  -7   2  266.57   28.80 
   1   7  -2  269.17   22.00 
  -1   7   2  244.38   25.70 
  -1  -7  -2  300.67   33.10 
  -1  -7   2  308.37   34.20 
   1   7   2  276.87   19.60 
   1  -7  -2  299.27   29.80 
  -1   7  -2  239.68   26.30 
  -1   7  -2  275.57   14.40 
   2  -7   2   29.70   10.40 
  -2  -7  -2   48.00   15.30 
   2   7  -2   29.50    8.90 
  -2   7   2   32.20    8.70 
  -2  -7   2   24.00   10.30 
  -2  -7   2   42.30    7.20 
   2   7   2   30.10    7.00 
  -2   7  -2   30.20   10.50 
  -2   7  -2   27.00    7.40 
  -3   7   2  984.20   51.79 
  -3  -7  -2  952.90   61.29 
  -3  -7  -2  940.41   50.69 
   3  -7   2  941.21   52.29 
  -3   7  -2  987.60   50.19 
  -3   7  -2 1003.70   57.89 
  -3  -7   2 1019.20   48.30 
   3  -7  -2 1087.79   50.59 
  -3  -7   2  923.61   59.89 
  -4  -7  -2  327.87   39.30 
  -4   7   2  317.97   31.80 
  -4  -7  -2  285.77   29.70 
  -4  -7   2  295.17   23.30 
  -4  -7   2  210.58   30.90 
  -4   7  -2  323.47   31.60 
  -4   7  -2  300.27   34.70 
  -5   7   2   85.79   18.50 
  -5  -7  -2   50.39   16.50 
  -5  -7  -2   61.69   14.70 
  -5  -7   2   98.39   17.20 
  -5   7  -2   57.19   16.70 
  -5  -7   2  112.29   23.40 
  -5   7  -2   81.49   20.00 
  -6  -7  -2  235.58   35.70 
  -6   7   2  190.38   29.70 
  -6  -7  -2  202.28   28.50 
  -6   7  -2  290.17   40.40 
  -6  -7   2  247.08   30.40 
  -6  -7   2  234.78   34.50 
  -6   7  -2  239.78   33.80 
  -7  -7  -2    5.00   10.50 
  -7   7   2   18.90   14.40 
  -7  -7  -2   17.70   13.30 
  -7  -7   2   10.10   10.70 
  -7   7  -2   27.00   15.70 
  -7   7  -2    7.20   12.50 
  -7  -7   2   20.30   12.80 
  -8  -7  -2   58.79   20.00 
  -8  -7  -2   65.49   21.50 
  -8   7   2   64.09   23.20 
  -8   7  -2   36.10   18.90 
  -8   7  -2   57.19   23.10 
  -8  -7   2   63.59   20.70 
  -9   7   2   29.70   18.90 
  -9  -7  -2   14.90   16.40 
  -9   7  -2   -9.50   15.60 
  -9   7  -2   11.90   19.00 
  -9  -7   2   -1.40   13.30 
 -10   7   2   39.40   24.80 
 -10  -7  -2   33.10   20.60 
 -10   7  -2   56.79   27.40 
 -10   7  -2   28.20   23.50 
 -10  -7   2   47.40   23.60 
   0  -8  -2  108.99   20.00 
   0   8   2   84.89   14.70 
   0  -8   2   99.09   20.60 
   0   8  -2   79.69   16.00 
   1  -8   2  228.68   29.40 
  -1   8   2  204.28   23.90 
   1   8  -2  215.48   24.90 
  -1  -8  -2  170.68   26.10 
  -1   8  -2  212.98   27.00 
   1  -8  -2  245.58   29.10 
  -1  -8   2  207.18   29.30 
   1   8   2  184.98   19.90 
  -2   8   2  249.88   29.00 
   2  -8   2  298.97   31.50 
   2   8  -2  254.97   25.90 
  -2  -8  -2  223.18   22.40 
  -2  -8  -2  290.87   36.20 
  -2   8   2  245.28   20.40 
   2   8   2  241.78   18.40 
  -2  -8   2  251.57   33.30 
  -2   8  -2  228.08   28.50 
   2  -8  -2  311.57   30.20 
  -3  -8  -2  350.46   40.60 
  -3   8   2  331.67   26.40 
   3  -8   2  377.76   29.50 
   3   8  -2  323.47   26.30 
  -3   8  -2  319.07   35.50 
   3  -8  -2  371.66   26.80 
  -3  -8   2  332.77   40.00 
  -4  -8  -2  402.76   30.00 
  -4   8   2  364.26   30.00 
  -4  -8  -2  313.57   39.90 
  -4  -8   2  395.76   46.60 
  -4   8  -2  382.06   36.00 
  -4   8  -2  384.26   43.60 
  -5  -8  -2   23.70   11.00 
  -5  -8  -2   16.30   11.70 
  -5   8   2    9.40   10.00 
  -5   8  -2   15.40   12.20 
  -5  -8   2    9.50   11.80 
  -5   8  -2   22.80   13.50 
  -5  -8   2    9.40    8.70 
  -6  -8  -2    8.50   11.20 
  -6   8   2   19.90   12.30 
  -6  -8  -2   20.10   12.30 
  -6   8  -2   28.00   15.40 
  -6  -8   2   21.50   11.90 
  -6  -8   2   18.20   13.40 
  -6   8  -2   21.20   13.80 
  -7  -8  -2  151.18   30.50 
  -7   8   2  107.69   25.60 
  -7  -8  -2  131.19   24.90 
  -7   8  -2  113.99   27.60 
  -7  -8   2  157.58   30.40 
  -7  -8   2  168.78   27.40 
  -7   8  -2  165.48   31.00 
  -8  -8  -2   49.00   19.20 
  -8   8   2   82.89   24.90 
  -8  -8  -2   55.89   21.10 
  -8  -8   2   64.59   21.10 
  -8   8  -2   46.80   21.10 
  -8   8  -2   64.69   29.10 
  -8  -8   2   69.19   21.40 
  -9  -8  -2   47.30   20.60 
  -9   8   2  122.09   31.60 
  -9   8  -2   46.70   24.30 
   0  -9   2   58.19   16.80 
   0   9   2   14.20    7.60 
   0   9  -2   54.49   13.40 
   0  -9  -2   25.30   11.60 
  -1   9   2   17.70    8.20 
   1   9  -2    8.50    7.40 
   1  -9   2   13.00    9.70 
  -1  -9  -2   13.40    9.50 
  -1  -9   2    8.10    9.00 
   1   9   2    3.00    6.30 
  -1   9  -2   14.20    8.60 
   1  -9  -2    6.30    7.70 
  -2   9   2   19.20    8.20 
   2   9  -2    7.50    7.40 
  -2   9   2   10.70    9.10 
   2  -9   2    8.70    8.60 
  -2  -9  -2   14.20   10.20 
  -2  -9  -2   18.40    8.00 
  -2  -9   2    3.80    9.20 
  -2   9  -2   18.80    9.70 
   2  -9  -2    8.50    7.70 
  -3   9   2   63.29   17.80 
  -3  -9  -2   59.69   18.80 
  -3  -9  -2   58.89   12.80 
   3   9  -2   79.59   16.30 
   3  -9   2   74.39   16.90 
  -3   9   2   59.09   14.20 
  -3  -9   2   79.19   20.70 
  -3   9  -2   29.30   12.60 
   3  -9  -2   32.60   10.70 
  -4  -9  -2   63.99   14.80 
  -4   9   2  107.89   19.80 
  -4  -9  -2   78.99   21.90 
  -4  -9   2   77.69   21.80 
  -4   9  -2   80.19   19.90 
  -5   9   2  252.37   32.30 
  -5  -9  -2  239.58   36.80 
  -5  -9  -2  335.37   36.10 
  -5  -9   2  259.77   38.80 
  -5   9  -2  284.57   38.90 
  -6  -9  -2    0.60   10.80 
  -6   9   2   -0.50   10.90 
  -6  -9  -2   10.70   11.10 
  -6   9  -2   10.80   14.60 
  -6  -9   2    2.40   11.00 
  -7  -9  -2   80.29   24.10 
  -7  -9  -2   83.69   21.40 
  -7   9   2  100.09   25.50 
  -7  -9   2  118.39   27.60 
  -7   9  -2   90.79   26.70 
  -8  -9  -2  117.89   29.60 
  -8   9   2  165.08   32.30 
  -8  -9  -2  167.88   30.70 
  -8   9  -2  138.39   32.60 
  -8  -9   2  193.98   34.80 
  -9  -9  -2    5.70   15.00 
  -9   9   2    9.40   21.40 
  -9   9  -2   16.30   19.10 
   0 -10   2  263.07   36.30 
   0 -10  -2  272.77   35.20 
   0  10   2  257.77   28.40 
   0  10  -2  302.47   33.90 
  -1 -10  -2    5.00    9.80 
  -1  10   2    8.70    8.80 
   1 -10   2   18.50   10.40 
   1  10  -2   10.80    8.40 
  -1  10  -2    9.00    8.30 
   1  10   2    4.50    7.30 
   1 -10  -2   -3.30    7.00 
  -1 -10   2   14.50   10.50 
   2  10  -2  196.38   26.20 
  -2 -10  -2  201.08   32.20 
  -2  10   2  267.47   32.40 
   2 -10   2  274.27   34.60 
  -2 -10   2  180.88   30.70 
   2 -10  -2  206.88   27.40 
  -2  10  -2  188.98   28.20 
  -3 -10  -2   45.70   16.80 
  -3  10   2   11.00    9.50 
   3  10  -2    1.40    8.50 
   3 -10   2    1.20    9.20 
  -3 -10   2   34.80   15.10 
  -3  10  -2   23.70   12.50 
  -4 -10  -2   36.10   16.30 
  -4  10   2  112.19   25.30 
  -4 -10   2   58.19   20.50 
  -4  10  -2   90.59   23.00 
  -5 -10  -2   29.80   16.20 
  -5  10   2   58.29   19.10 
  -5  10  -2   86.19   22.30 
  -5 -10   2   50.69   17.70 
  -6 -10  -2   14.40   13.80 
  -6  10   2   45.20   18.80 
  -6 -10   2   11.20   13.90 
  -6  10  -2   51.69   20.40 
  -7 -10  -2   -0.40   12.40 
  -7  10   2   24.10   16.50 
  -7  10  -2   21.70   17.10 
  -7 -10   2    3.90   12.80 
  -8 -10  -2   11.10   13.80 
  -8  10   2   -2.00   13.60 
  -8  10  -2   -7.60   13.30 
  -8 -10   2   -3.90   14.70 
  -9  10   2   89.79   31.00 
  -9  10  -2   91.99   34.00 
   0  11  -2  510.55   39.70 
   0 -11  -2  514.15   43.80 
   0 -11   2  515.85   54.19 
   0  11   2  543.75   38.30 
  -1  11   2  280.57   32.50 
   1  11  -2  241.68   30.20 
  -1 -11  -2  258.17   37.60 
   1 -11   2  273.77   37.60 
   1 -11  -2  254.87   33.90 
  -1 -11   2  242.08   37.40 
  -1  11  -2  232.98   31.00 
  -2 -11  -2    4.70    9.70 
  -2  11   2    1.00    8.50 
   2  11  -2   -9.00    7.50 
   2 -11   2    1.90   10.40 
  -2 -11   2   -2.70    8.30 
   2 -11  -2   20.60   11.40 
  -2  11  -2   -7.60    6.70 
  -3  11   2  399.46   43.90 
  -3 -11  -2  388.76   48.30 
  -3  11  -2  349.27   42.40 
  -3 -11   2  373.66   48.70 
  -4 -11  -2   63.09   20.80 
  -4  11   2   31.70   15.50 
  -4  11  -2   57.79   19.10 
  -4 -11   2   39.90   16.50 
  -5 -11  -2   22.00   14.80 
  -5  11   2   68.99   21.70 
  -5 -11   2   58.79   21.70 
  -5  11  -2  104.99   27.30 
  -6  11   2   27.20   16.10 
  -6 -11  -2   36.40   18.20 
  -6  11  -2   19.20   14.80 
  -6 -11   2   47.90   19.90 
  -7 -11  -2   11.60   15.50 
  -7  11   2    6.00   16.50 
  -7 -11   2   -5.10   15.00 
  -7  11  -2   -6.00   13.40 
  -8 -11  -2   -3.30   13.50 
  -8  11   2   11.40   19.10 
  -8 -11   2    0.70   16.10 
  -8  11  -2    0.70   15.90 
   0 -12   2   15.60   14.10 
   0  12   2    5.80   10.00 
   0  12  -2   16.10   10.20 
   0 -12  -2    0.80   10.90 
  -1 -12  -2  143.99   29.50 
   1 -12   2  154.78   29.20 
   1  12  -2   96.09   20.60 
  -1  12   2  137.89   24.90 
  -1 -12   2  155.68   31.30 
   1 -12  -2  142.19   26.90 
  -1  12  -2  129.09   25.20 
   2 -12   2   24.80   14.70 
  -2  12   2   12.00   10.90 
  -2 -12  -2   18.40   14.20 
   2  12  -2   13.10   10.30 
   2 -12  -2    6.20   11.70 
  -2 -12   2   21.60   15.70 
  -2  12  -2   24.90   12.90 
  -3 -12  -2  220.28   38.00 
  -3  12   2  299.57   40.00 
  -3 -12   2  280.47   42.60 
  -3  12  -2  355.36   42.90 
  -4 -12  -2    7.40   11.70 
  -4  12   2   26.50   15.40 
  -4 -12   2    7.90   13.10 
  -4  12  -2   14.60   13.60 
  -5 -12  -2   13.60   12.90 
  -5  12   2    2.70   11.60 
  -5  12  -2   -1.80   11.80 
  -5 -12   2    3.60   11.90 
  -6 -12  -2    7.80   14.70 
  -6  12   2   -0.10   12.20 
  -6 -12   2   11.30   15.00 
  -6  12  -2    3.60   13.40 
  -7 -12  -2   18.10   17.90 
  -7  12   2   50.69   22.70 
  -7 -12   2   73.79   24.60 
  -7  12  -2   49.20   24.40 
   0 -13  -2    0.10   11.30 
   0 -13   2   32.70   17.20 
   0  13  -2   29.40   14.30 
   1  13  -2   37.20   15.20 
  -1 -13  -2   28.20   15.60 
   1 -13   2   12.20   13.70 
  -1  13   2   30.70   14.10 
  -1  13  -2   28.90   14.70 
   1 -13  -2   25.00   15.20 
  -1 -13   2    6.20   15.30 
  -2 -13  -2   34.90   17.40 
  -2  13   2   56.59   18.60 
   2 -13   2    9.70   15.00 
  -2  13  -2   19.90   12.80 
  -2 -13   2   15.10   13.60 
   2 -13  -2   17.70   14.50 
  -3  13   2   86.09   23.00 
  -3 -13  -2   46.50   20.60 
  -3  13  -2   85.39   23.80 
  -3 -13   2   71.19   22.90 
  -4  13   2   61.89   20.60 
  -4 -13  -2   87.09   25.20 
  -4 -13   2   63.49   22.50 
  -4  13  -2  110.99   27.80 
  -5  13   2   86.59   26.30 
  -5 -13  -2   71.49   23.80 
  -5 -13   2   87.69   25.90 
  -5  13  -2   72.09   25.40 
  -6  13   2   31.20   20.40 
  -6 -13  -2   37.40   20.00 
  -6 -13   2   24.20   19.20 
  -6  13  -2   14.70   16.60 
  -7  13   2   15.10   17.10 
  -7 -13  -2    1.70   16.70 
  -7  13  -2   17.40   19.50 
  -7 -13   2   34.90   21.00 
   0 -14  -2   27.70   16.10 
   0  14  -2   44.30   16.60 
   0 -14   2   24.80   16.70 
  -1  14   2   41.20   27.60 
  -1 -14  -2   16.00   14.80 
   1 -14   2   25.40   18.00 
  -1  14  -2    9.40   12.20 
  -1 -14   2    6.40   13.10 
   1 -14  -2   14.40   15.60 
  -2 -14  -2   20.10   14.80 
  -2  14   2   -0.10   11.50 
  -2  14  -2   11.90   12.20 
  -2 -14   2   -3.30   10.70 
  -3  14   2    1.40   11.20 
  -3 -14  -2   -5.00   10.20 
  -3  14  -2   10.10   11.80 
  -3 -14   2   -0.10   12.90 
  -4  14   2    5.80   11.90 
  -4 -14  -2    8.20   14.30 
  -4 -14   2    6.60   12.50 
  -4  14  -2    2.40   13.20 
  -5 -14  -2   60.99   26.90 
  -5  14   2   93.29   28.60 
  -5 -14   2   81.79   26.80 
  -5  14  -2   59.29   23.70 
  -6 -14  -2   20.60   21.10 
  -6  14   2   24.50   21.70 
  -6  14  -2   12.60   19.90 
  -6 -14   2   15.60   17.90 
   0  15  -2  228.98   35.60 
   0 -15   2  207.58   38.30 
   0 -15  -2  247.68   40.90 
   1 -15   2   -1.50   15.40 
  -1 -15  -2   -6.40   11.30 
  -1  15  -2   24.40   15.70 
   1 -15  -2    8.60   15.70 
  -1 -15   2   21.80   17.70 
  -2 -15  -2   56.89   23.60 
  -2  15   2   26.70   17.90 
  -2 -15   2   56.79   23.40 
  -2  15  -2   56.89   21.30 
  -3  15   2  118.09   29.90 
  -3 -15  -2  117.39   32.60 
  -3  15  -2  131.89   30.70 
  -3 -15   2  108.29   31.20 
  -4 -15  -2    2.60   15.20 
  -4  15   2   18.60   16.40 
  -4  15  -2   13.30   16.50 
  -4 -15   2   20.10   17.00 
   0 -16   2   66.79   27.30 
   0 -16  -2   85.59   27.00 
   1 -16   2   64.19   26.10 
  -1 -16  -2   48.00   22.40 
   1 -16  -2   42.20   20.70 
  -1  16  -2   36.10   19.30 
  -1 -16   2   35.80   23.70 
  -2 -16  -2    6.20   16.60 
  -2 -16   2   20.50   18.70 
  -2  16  -2   20.70   16.80 
  -3 -16  -2   82.09   27.50 
  -3  16   2  106.89   29.10 
  -3 -16   2  158.68   38.50 
  -3  16  -2  138.19   32.80 
   0   0   3    2.90    2.40 
  -1   0  -3    1.30    1.40 
  -1   0  -3    2.30    2.50 
   1   0   3    0.80    2.60 
  -1   0   3    1.80    2.30 
   2   0   3 2047.20   79.49 
  -2   0   3 1799.12   79.99 
  -2   0  -3 1982.20   81.19 
  -2   0   3 1784.52   78.09 
  -2   0  -3 1927.61   77.09 
  -3   0   3    1.90    2.80 
  -3   0  -3   -0.80    2.50 
   3   0   3   -0.90    2.00 
  -3   0   3    6.70    4.80 
  -3   0  -3   -4.60    3.40 
  -4   0   3 1120.09   53.19 
  -4   0  -3 1312.77   62.09 
   4   0   3 1204.38   54.49 
  -4   0  -3 1227.68   55.39 
  -4   0   3 1181.18   60.69 
  -5   0  -3   -1.60    5.20 
  -5   0  -3    2.50    6.40 
   5   0   3    0.20    3.60 
  -5   0   3   -1.40    4.00 
  -5   0   3   -1.40    5.30 
  -6   0  -3  393.16   41.90 
  -6   0  -3  412.06   30.80 
  -6   0   3  469.95   37.00 
  -7   0   3    1.00    7.10 
  -7   0  -3   -2.60    6.50 
  -8   0   3   -2.20   10.10 
  -8   0  -3   13.80   12.90 
  -9   0   3   -4.40   12.10 
  -9   0  -3   -2.60    9.90 
 -10   0   3   62.89   25.80 
 -10   0  -3   60.99   23.70 
 -11   0  -3    2.70   14.40 
 -11   0   3   -9.80   13.40 
   0   1   3    1.10    2.20 
   0   1  -3   -1.70    2.20 
   0  -1   3    1.20    2.60 
  -1   1   3  335.87   19.40 
  -1  -1  -3  373.96   20.40 
   1  -1   3  367.76   20.10 
   1   1   3  352.76   20.60 
  -1   1  -3  384.66   19.20 
  -1  -1   3  337.37   20.00 
  -2  -1  -3  227.98   16.90 
  -2  -1  -3  247.78   16.70 
  -2   1   3  269.97   18.00 
  -2   1   3  242.48   14.80 
  -2  -1  -3  247.18   12.90 
  -2   1  -3  251.97   16.00 
  -2  -1   3  243.88   16.50 
  -2   1  -3  243.58   16.60 
  -2  -1   3  212.38   15.90 
  -3   1   3   85.59   13.90 
  -3  -1  -3   98.79   14.20 
   3  -1   3   93.19   10.90 
  -3  -1  -3  108.69   10.20 
  -3  -1  -3   92.39   12.00 
  -3   1   3  108.69   10.70 
  -3   1  -3  156.38   17.80 
  -3  -1   3   89.79   11.90 
  -3   1  -3  120.09   14.00 
  -3  -1   3  108.59   15.30 
   4  -1   3  568.24   29.30 
  -4   1   3  542.35   35.60 
  -4  -1  -3  596.84   29.40 
  -4  -1  -3  612.94   37.10 
  -4   1   3  547.95   27.80 
  -4  -1  -3  609.34   32.50 
  -4   1  -3  575.44   32.60 
  -4   1  -3  567.94   35.60 
  -4  -1   3  526.55   30.90 
  -4  -1   3  520.05   34.90 
  -5   1   3  341.07   20.60 
  -5  -1  -3  403.16   24.80 
  -5  -1  -3  388.06   25.20 
   5  -1   3  350.46   21.80 
  -5   1   3  395.46   31.00 
  -5  -1  -3  379.16   30.50 
  -5   1  -3  338.47   26.20 
  -5  -1   3  370.16   25.20 
  -5   1  -3  383.36   30.30 
  -5  -1   3  408.66   31.30 
  -6  -1  -3   53.19   11.50 
  -6   1   3   43.00   14.70 
  -6  -1  -3   50.59   15.40 
  -6  -1   3   33.90   12.50 
  -6   1  -3   35.90   12.00 
  -6  -1   3   34.30   10.70 
   6   1   3   34.30    9.90 
  -6   1  -3   34.50   13.40 
  -7   1   3    5.70    9.30 
  -7  -1  -3   10.90    9.30 
  -7  -1   3   -4.60    6.70 
  -7   1  -3   -2.10    8.80 
  -7   1  -3   22.50   12.10 
  -8  -1  -3  116.69   25.50 
  -8   1   3  122.69   26.90 
  -8  -1   3   99.09   25.20 
  -8   1  -3  131.29   26.80 
  -9  -1  -3   88.79   24.10 
  -9   1   3   63.09   21.50 
  -9   1  -3   60.89   20.00 
  -9  -1   3   71.39   23.30 
 -10  -1  -3  153.58   34.50 
 -10   1   3  121.39   30.60 
 -10  -1   3  107.89   29.60 
 -10   1  -3  144.29   31.30 
 -11  -1  -3  -12.50   13.40 
 -11   1   3    9.80   18.00 
 -11   1  -3  -12.80   15.30 
 -11  -1   3   -7.00   15.50 
   0  -2  -3   -0.70    1.80 
   0   2  -3    1.30    2.40 
   0  -2   3    1.70    2.70 
  -1  -2  -3   92.49   11.60 
  -1   2   3   90.49   10.30 
  -1  -2  -3   73.29    9.80 
   1  -2   3   95.49   10.70 
  -1   2  -3   87.99    8.90 
  -1  -2   3   99.49   12.10 
  -1  -2   3   80.89    8.40 
  -1   2  -3   66.19    9.20 
  -2   2   3  693.53   32.80 
  -2  -2  -3  752.02   37.70 
  -2   2   3  671.03   36.00 
  -2  -2  -3  693.03   36.20 
  -2  -2   3  684.03   34.10 
  -2   2  -3  735.63   34.70 
  -2  -2   3  667.83   36.00 
  -2   2  -3  749.92   36.20 
  -3   2   3  214.38   13.30 
  -3  -2  -3  209.88   17.40 
   3  -2   3  224.58   14.20 
  -3  -2  -3  200.08   11.10 
  -3  -2  -3  249.88   23.80 
  -3   2   3  213.68   21.70 
  -3   2  -3  239.78   18.00 
  -3   2  -3  224.08   17.60 
  -3  -2   3  210.38   17.20 
  -3  -2   3  209.18   20.90 
  -4   2   3  505.45   23.00 
  -4  -2  -3  417.06   28.80 
   4  -2   3  463.95   23.80 
  -4  -2  -3  429.86   22.60 
  -4  -2  -3  403.16   30.40 
  -4   2   3  453.55   31.30 
  -4  -2   3  443.26   28.80 
  -4   2  -3  525.65   32.50 
  -4  -2   3  431.36   30.20 
  -4   2  -3  459.75   29.50 
  -5   2   3   91.69   18.10 
  -5  -2  -3  129.79   21.70 
   5  -2   3   82.49    9.80 
  -5  -2  -3   90.29   15.30 
  -5   2  -3   85.29   15.80 
  -5  -2   3   89.69   15.20 
  -5  -2   3   82.99   17.40 
  -5   2  -3  106.39   19.30 
  -6   2   3  745.93   51.29 
  -6  -2  -3  739.43   44.80 
  -6  -2  -3  718.23   50.19 
  -6   2  -3  882.01   53.69 
  -6  -2   3  825.22   46.80 
  -6  -2   3  764.52   51.39 
  -6   2  -3  855.71   50.59 
  -7  -2  -3   44.80   15.80 
  -7   2   3   21.60   11.50 
  -7   2  -3   13.00    9.50 
  -7   2  -3   22.20   12.50 
  -7  -2   3   21.60   12.10 
  -8  -2  -3  214.08   34.90 
  -8   2   3  198.98   32.80 
  -8   2  -3  219.08   36.10 
  -8   2  -3  178.88   29.80 
  -8  -2   3  209.68   34.80 
  -9  -2  -3   -9.30    9.10 
  -9   2   3    2.70   11.20 
  -9   2  -3    3.40   12.30 
  -9  -2   3   -0.50   11.60 
 -10  -2  -3   33.60   18.90 
 -10   2   3   16.70   17.10 
 -10   2  -3   25.80   17.20 
 -10  -2   3   16.90   16.10 
 -11   2   3   11.90   17.20 
 -11  -2  -3    1.00   14.50 
 -11  -2   3   -3.70   15.90 
 -11   2  -3  -16.60   15.50 
   0  -3  -3    0.40    2.60 
   0   3  -3    1.90    3.10 
   0  -3   3   -1.90    2.20 
   1   3  -3  591.04   31.40 
  -1  -3  -3  588.94   33.20 
  -1  -3  -3  599.64   30.80 
   1  -3   3  596.94   30.70 
  -1  -3   3  584.14   26.50 
  -1   3  -3  576.04   26.40 
   1  -3  -3  549.45   29.60 
  -1   3  -3  610.14   32.10 
  -1  -3   3  638.54   33.30 
  -2  -3  -3  269.67   20.90 
  -2   3   3  267.57   16.30 
  -2  -3  -3  244.88   18.40 
  -2  -3   3  269.17   20.00 
  -2   3  -3  238.38   18.50 
  -2  -3   3  261.27   16.50 
  -2   3  -3  221.78   15.70 
  -3  -3  -3  686.33   39.80 
  -3   3   3  657.83   38.00 
  -3   3   3  652.93   31.40 
   3  -3   3  686.93   32.60 
  -3  -3  -3  644.04   38.00 
  -3  -3   3  702.73   37.00 
  -3  -3   3  691.63   38.80 
  -3   3  -3  686.53   38.20 
  -3   3  -3  653.03   36.20 
  -4  -3  -3   82.29   15.30 
  -4   3   3   77.89   15.70 
   4  -3   3   68.99    9.10 
  -4  -3  -3   81.79    6.40 
  -4  -3  -3   69.19   14.20 
  -4   3   3   87.09    8.70 
  -4  -3   3   67.99   13.30 
  -4   3  -3   90.89   15.40 
  -4  -3   3   62.89   12.80 
  -4   3  -3   89.69   15.20 
  -5  -3  -3  547.05   37.60 
  -5  -3  -3  528.75   36.10 
  -5   3   3  588.14   39.10 
  -5   3  -3  500.35   37.00 
  -5  -3   3  491.15   35.70 
  -5   3  -3  446.86   34.40 
  -5  -3   3  481.55   34.70 
  -6  -3  -3   23.00    9.70 
  -6  -3  -3    5.10    9.40 
  -6   3   3   21.50   12.90 
  -6   3  -3   37.70   13.50 
  -6   3  -3   36.10   13.60 
  -6  -3   3   21.80   11.40 
  -6  -3   3   23.50   11.10 
  -7  -3  -3   15.60   11.30 
  -7  -3  -3   50.49   16.00 
  -7   3   3   25.40   11.40 
  -7  -3   3   23.50   12.40 
  -7   3  -3   17.10   11.50 
  -7   3  -3   44.90   16.20 
  -8  -3  -3   52.59   17.50 
  -8   3   3   28.20   14.60 
  -8  -3   3   73.79   21.00 
  -8   3  -3   59.39   19.80 
  -8   3  -3   32.90   14.10 
  -9   3   3   59.59   22.50 
  -9  -3  -3   79.79   22.60 
  -9  -3   3   95.49   26.10 
  -9   3  -3   59.19   22.30 
 -10   3   3  122.29   32.00 
 -10  -3  -3  130.69   30.70 
 -10   3  -3   85.19   26.60 
 -10  -3   3  153.88   34.40 
 -11   3   3   11.90   17.80 
 -11  -3  -3    5.10   16.20 
 -11   3  -3   -2.70   13.90 
 -11  -3   3   -9.30   15.40 
   0  -4  -3    0.50    3.90 
   0  -4   3   -2.50    2.30 
   0   4  -3   -0.30    3.20 
  -1  -4  -3  157.98   16.00 
  -1  -4  -3  137.79   17.40 
   1  -4   3  168.78   17.80 
   1   4  -3  157.08   16.80 
  -1   4  -3  148.09    9.00 
  -1  -4   3  137.19    9.30 
  -1  -4   3  151.48   17.80 
  -1   4  -3  192.08   20.10 
   1  -4  -3  168.28   16.60 
  -2  -4  -3 1813.62   79.69 
  -2  -4  -3 1809.92   85.39 
  -2  -4   3 1899.41   84.39 
   2  -4  -3 1847.92   76.89 
  -2  -4   3 1805.12   75.89 
  -2   4  -3 1826.82   82.09 
  -2   4  -3 1752.12   75.39 
  -3   4   3   72.99    9.30 
  -3   4   3   59.69   11.40 
  -3  -4  -3   66.69   12.90 
  -3  -4  -3   93.79   16.50 
   3  -4   3   66.59    9.70 
  -3   4  -3   70.69   12.10 
  -3   4  -3   67.59   13.00 
  -3  -4   3   59.99   12.80 
  -4   4   3  533.45   37.00 
  -4  -4  -3  596.64   38.00 
  -4  -4  -3  562.24   39.20 
   4  -4   3  592.24   29.80 
  -4   4   3  586.34   27.40 
  -4   4  -3  639.64   38.00 
  -4  -4   3  565.24   35.80 
  -4   4  -3  557.14   37.90 
  -4  -4   3  570.64   38.80 
  -5  -4  -3  147.49   23.00 
  -5  -4  -3  174.48   24.30 
  -5   4   3  172.28   25.40 
  -5  -4   3  140.39   21.30 
  -5   4  -3  123.79   20.70 
  -5  -4   3  161.28   23.70 
  -5   4  -3  172.88   25.60 
  -6   4   3  377.86   40.30 
  -6  -4  -3  348.97   37.70 
  -6  -4  -3  384.76   40.10 
  -6   4  -3  339.37   39.10 
  -6  -4   3  388.86   40.20 
  -6  -4   3  386.46   39.10 
  -6   4  -3  288.17   35.70 
  -7  -4  -3  155.88   28.20 
  -7   4   3  196.28   31.50 
  -7  -4  -3  209.88   28.20 
  -7   4  -3  156.58   28.10 
  -7   4  -3  126.89   25.60 
  -7  -4   3  177.78   28.10 
  -7  -4   3  235.98   33.10 
  -8  -4  -3    5.30   10.80 
  -8   4   3   15.70   15.00 
  -8  -4   3   -4.80    9.60 
  -8   4  -3    7.40   13.90 
  -8   4  -3   25.70   14.80 
  -9  -4  -3   60.69   21.10 
  -9   4   3   33.70   19.90 
  -9   4  -3   63.79   23.50 
  -9  -4   3   32.00   17.90 
  -9   4  -3   40.30   21.00 
 -10   4   3   75.49   28.10 
 -10  -4  -3    8.40   14.10 
 -10  -4   3   35.90   22.00 
 -10   4  -3   74.69   26.80 
   0   5  -3   -1.20    3.10 
   0  -5   3    1.40    3.70 
   0  -5  -3    4.30    4.90 
  -1  -5  -3  966.00   55.69 
  -1  -5  -3 1091.59   50.59 
   1  -5   3 1058.09   52.99 
   1   5  -3 1039.00   52.39 
   1  -5  -3 1133.69   53.19 
  -1  -5   3 1082.39   55.99 
  -1  -5   3 1083.69   43.40 
  -1   5  -3 1028.20   53.49 
  -1   5  -3 1103.19   44.10 
   1   5   3 1036.80   46.40 
  -2  -5  -3  271.17   20.30 
   2  -5   3  261.17   20.00 
  -2  -5  -3  333.07   32.60 
   2   5  -3  256.27   20.80 
  -2   5  -3  268.67   17.10 
   2   5   3  264.97   14.00 
  -2  -5   3  343.57   26.00 
  -2  -5   3  294.67   17.90 
  -2   5  -3  293.37   23.30 
   2  -5  -3  334.67   20.60 
   3  -5   3  233.78   18.10 
  -3  -5  -3  260.47   30.00 
  -3   5   3  239.68   24.10 
  -3  -5  -3  260.77   26.60 
   3  -5  -3  245.38   16.70 
  -3  -5   3  240.38   18.50 
  -3   5  -3  269.27   28.80 
  -3   5  -3  232.08   19.00 
  -3  -5   3  214.18   26.60 
   4  -5   3  177.38   17.50 
  -4  -5  -3  182.28   26.80 
  -4   5   3  154.78   12.10 
  -4  -5  -3  127.79   19.30 
  -4   5   3  149.29   20.80 
  -4  -5   3  122.59   21.30 
  -4  -5   3  163.48   20.10 
  -4   5  -3  154.68   23.00 
  -4   5  -3  158.08   21.10 
  -5   5   3   33.70   12.00 
  -5  -5  -3   51.59   15.90 
  -5  -5  -3   39.90   12.60 
  -5   5  -3   45.60   13.60 
  -5  -5   3   15.40    8.70 
  -5  -5   3   57.49   15.10 
  -5   5  -3   20.50   10.00 
  -6  -5  -3   84.89   19.00 
  -6   5   3   51.59   15.50 
  -6  -5  -3   52.09   16.50 
  -6   5  -3   53.99   16.30 
  -6  -5   3  104.39   19.70 
  -6   5  -3   54.39   17.00 
  -6  -5   3   62.69   17.60 
  -7  -5  -3   -3.00   10.00 
  -7  -5  -3   -2.10    9.30 
  -7   5   3   19.10   13.40 
  -7  -5   3   -3.70    8.40 
  -7   5  -3   -3.30   10.00 
  -7   5  -3   11.00   12.30 
  -7  -5   3   23.10   13.50 
  -8   5   3   75.19   23.40 
  -8  -5  -3   64.89   20.40 
  -8   5  -3   55.99   19.00 
  -8  -5   3   94.79   24.30 
  -8   5  -3   31.60   19.90 
  -9  -5  -3   91.29   26.50 
  -9   5   3   56.89   22.70 
  -9   5  -3  134.69   31.70 
  -9   5  -3   73.09   25.40 
  -9  -5   3   89.79   24.10 
 -10  -5  -3   43.60   21.20 
 -10   5   3   26.30   19.60 
 -10   5  -3   68.29   26.40 
 -10  -5   3   63.39   24.60 
   0  -6  -3   -2.10    3.50 
   0   6  -3    0.70    3.80 
   0  -6   3   -2.50    4.40 
   1  -6   3    6.00    5.10 
  -1  -6  -3   -0.90    5.40 
  -1  -6  -3   -2.70    2.90 
   1   6  -3   -1.00    3.40 
   1  -6  -3   -2.60    3.80 
   1   6   3    2.30    3.40 
  -1   6  -3   -0.20    3.90 
  -1  -6   3    2.70    4.70 
   2  -6   3  127.09   17.20 
  -2  -6  -3  103.19   18.80 
   2   6  -3  108.69   16.10 
  -2  -6  -3  115.99   15.60 
  -2  -6   3  122.99   12.00 
  -2   6  -3   98.09   16.50 
   2   6   3  124.89    9.60 
  -2   6  -3  102.79   11.40 
  -2  -6   3   99.39   18.40 
  -3  -6  -3  185.18   26.70 
   3  -6   3  219.08   22.60 
  -3   6   3  177.98   21.30 
  -3  -6  -3  224.98   24.10 
  -3   6  -3  218.08   21.40 
  -3  -6   3  221.58   17.60 
  -3  -6   3  249.68   30.90 
   3  -6  -3  217.38   17.10 
  -3   6  -3  204.58   25.90 
  -4  -6  -3  518.05   36.30 
  -4   6   3  520.55   36.40 
  -4  -6  -3  499.45   40.70 
   4  -6   3  534.05   31.80 
  -4   6  -3  571.44   36.10 
  -4  -6   3  550.44   34.10 
  -4  -6   3  523.55   40.80 
  -4   6  -3  516.05   39.10 
  -5  -6  -3  565.64   40.10 
  -5  -6  -3  577.54   45.30 
  -5   6   3  506.15   39.20 
  -5  -6   3  530.95   42.60 
  -5  -6   3  572.74   38.00 
  -5   6  -3  541.15   39.50 
  -5   6  -3  571.34   44.00 
  -6   6   3  345.27   39.80 
  -6  -6  -3  307.77   38.90 
  -6  -6  -3  258.47   34.80 
  -6   6  -3  373.06   44.60 
  -6  -6   3  334.77   40.20 
  -6  -6   3  299.87   34.70 
  -6   6  -3  269.07   35.20 
  -7  -6  -3  144.19   26.60 
  -7  -6  -3  156.18   28.10 
  -7   6   3  160.38   29.40 
  -7  -6   3  209.48   32.50 
  -7  -6   3  150.48   27.70 
  -7   6  -3  200.18   34.60 
  -7   6  -3  237.58   35.30 
  -8   6   3   62.49   20.70 
  -8  -6  -3   66.09   20.30 
  -8   6  -3   82.99   25.50 
  -8   6  -3   38.50   18.40 
  -8  -6   3  113.99   26.60 
  -9   6   3   37.20   17.80 
  -9  -6  -3   48.20   18.60 
  -9  -6   3   12.50   15.30 
  -9   6  -3   67.09   25.00 
  -9   6  -3   71.89   24.10 
 -10   6   3   -4.90   15.00 
 -10  -6  -3    1.70   15.20 
 -10  -6   3   -8.10   15.70 
 -10   6  -3    7.60   17.80 
 -10   6  -3  -12.60   19.20 
   0  -7  -3    7.20    6.50 
   0  -7   3    0.80    4.70 
   0   7  -3   -0.50    4.80 
   0   7   3   -0.40    4.50 
  -1  -7  -3  370.86   37.30 
   1  -7   3  426.36   30.90 
   1   7  -3  326.27   26.40 
   1   7   3  382.86   23.30 
   1  -7  -3  350.46   27.90 
  -1   7  -3  360.46   28.50 
  -1  -7   3  373.26   31.60 
   2   7  -3  163.38   20.10 
   2  -7   3  175.08   21.80 
  -2  -7  -3  201.58   28.10 
  -2  -7  -3  184.58   20.20 
  -2   7  -3  148.39   12.10 
  -2  -7   3  154.18   12.00 
  -2   7  -3  170.58   23.90 
   2  -7  -3  157.78   19.30 
   2   7   3  163.68   12.70 
  -2  -7   3  152.48   24.40 
   3  -7   3  794.92   45.00 
  -3  -7  -3  733.63   43.40 
  -3   7   3  760.22   44.10 
  -3  -7  -3  778.02   52.89 
  -3  -7   3  794.42   52.79 
  -3  -7   3  795.72   39.40 
  -3   7  -3  719.53   48.40 
   3  -7  -3  780.82   41.20 
  -3   7  -3  771.12   40.90 
  -4  -7  -3  190.38   30.30 
  -4   7   3  205.78   25.50 
  -4  -7  -3  172.28   23.80 
  -4  -7   3  128.99   24.80 
  -4   7  -3  229.08   26.10 
  -4  -7   3  205.18   21.80 
  -4   7  -3  182.38   27.50 
  -5  -7  -3  277.47   38.40 
  -5  -7  -3  295.57   33.80 
  -5   7   3  341.47   37.50 
  -5  -7   3  342.47   41.60 
  -5   7  -3  368.86   38.00 
  -5   7  -3  386.76   44.20 
  -6  -7  -3  130.39   26.80 
  -6  -7  -3  135.39   24.00 
  -6   7   3  116.79   22.20 
  -6   7  -3  137.59   28.30 
  -6  -7   3  108.19   20.10 
  -6  -7   3  102.19   23.80 
  -6   7  -3  125.89   25.20 
  -7  -7  -3    5.80   10.70 
  -7   7   3    8.80   12.70 
  -7  -7  -3   12.80   11.80 
  -7  -7   3    4.60   11.60 
  -7   7  -3   10.10   14.00 
  -7  -7   3   11.60   12.40 
  -7   7  -3    0.90   13.40 
  -8   7   3   16.80   15.30 
  -8  -7  -3   -7.60   10.60 
  -8  -7  -3   -3.20   10.60 
  -8  -7   3    3.10   13.20 
  -8   7  -3   -7.80   13.90 
  -8   7  -3    3.60   13.40 
  -9   7   3    5.50   14.30 
  -9  -7  -3    4.00   15.80 
  -9  -7   3    6.80   14.30 
  -9   7  -3   22.10   19.00 
  -9   7  -3    6.50   18.50 
 -10   7   3   34.40   24.00 
 -10  -7  -3   20.60   20.30 
 -10   7  -3   52.79   29.10 
 -10   7  -3   38.90   22.70 
 -10  -7   3  117.79   32.20 
   0  -8  -3   -0.80    5.50 
   0   8   3    2.30    4.90 
   0   8  -3   -3.90    4.80 
   0  -8   3   -1.30    6.50 
  -1  -8  -3  391.26   40.80 
   1   8  -3  394.56   30.40 
   1  -8   3  422.86   33.80 
   1  -8  -3  404.36   31.80 
   1   8   3  398.46   25.90 
  -1  -8   3  448.16   36.30 
  -1   8  -3  389.26   31.60 
   2   8  -3  409.36   31.00 
   2  -8   3  391.46   32.60 
  -2  -8  -3  427.46   44.40 
  -2  -8  -3  429.16   28.80 
  -2  -8   3  433.76   45.60 
   2  -8  -3  463.75   32.00 
  -2   8  -3  423.36   34.00 
   2   8   3  475.65   28.90 
  -3  -8  -3  102.89   21.70 
  -3  -8  -3   62.69   13.30 
   3  -8   3  118.19   19.70 
  -3   8   3   51.69   12.50 
   3  -8  -3   92.39   15.40 
  -3  -8   3  105.79   22.10 
  -3   8  -3   92.39   19.80 
  -4  -8  -3  185.98   24.20 
  -4   8   3  233.08   28.10 
  -4  -8  -3  186.48   30.70 
  -4  -8   3  217.18   32.90 
  -4   8  -3  184.48   29.00 
  -5   8   3  188.28   28.40 
  -5  -8  -3  179.68   31.10 
  -5  -8  -3  202.88   28.50 
  -5  -8   3  201.48   33.20 
  -5   8  -3  189.18   30.70 
  -6  -8  -3  182.48   32.60 
  -6   8   3  188.98   30.50 
  -6  -8  -3  244.68   32.60 
  -6   8  -3  229.98   36.90 
  -6  -8   3  156.08   30.50 
  -7  -8  -3  148.09   30.10 
  -7  -8  -3  205.48   32.20 
  -7   8   3  210.68   34.80 
  -7  -8   3  172.78   31.90 
  -7   8  -3  263.97   42.80 
  -8  -8  -3   -6.50   11.20 
  -8   8   3   14.00   16.30 
  -8  -8  -3    8.60   13.70 
  -8  -8   3   -2.90   12.80 
  -8   8  -3   11.60   17.60 
  -9  -8  -3  103.19   29.20 
  -9   8   3   76.69   27.20 
  -9   8  -3  141.39   36.80 
   0   9  -3   -0.10    6.50 
   0   9   3   -2.70    5.30 
   0  -9   3   -3.10    5.90 
   0  -9  -3   -0.60    6.40 
   1  -9   3 1311.97   73.69 
  -1  -9  -3 1209.18   73.89 
   1   9  -3 1351.86   69.19 
  -1   9   3 1342.07   68.49 
   1   9   3 1304.67   62.79 
   1  -9  -3 1355.66   71.49 
  -1   9  -3 1259.57   70.29 
  -1  -9   3 1225.08   75.59 
  -2  -9  -3  182.38   30.20 
  -2   9   3  195.18   22.60 
   2  -9   3  164.18   25.70 
   2   9  -3  192.18   24.80 
  -2   9  -3  182.88   26.60 
  -2  -9   3  199.38   31.30 
   2  -9  -3  146.89   22.50 
  -3  -9  -3  161.18   29.10 
   3   9  -3  126.79   20.10 
  -3   9   3  131.39   19.60 
  -3  -9  -3  162.98   21.80 
  -3  -9   3  113.09   24.70 
   3  -9  -3  172.28   22.30 
  -3   9  -3  100.29   21.00 
  -4  -9  -3  175.08   23.50 
  -4  -9  -3  124.59   26.10 
  -4   9   3  105.39   20.40 
  -4   9  -3  116.69   25.10 
  -4  -9   3  147.39   28.70 
  -5   9   3   -1.20    8.20 
  -5  -9  -3    3.50    8.40 
  -5  -9  -3   -2.10    8.20 
  -5   9  -3    5.00   10.00 
  -5  -9   3   14.70   11.50 
  -6  -9  -3  113.09   22.80 
  -6   9   3   43.60   16.90 
  -6  -9  -3   44.10   18.90 
  -6  -9   3  114.89   26.30 
  -6   9  -3   89.29   25.20 
  -7  -9  -3   12.20   12.80 
  -7  -9  -3    3.10   13.40 
  -7   9   3   38.40   17.10 
  -7  -9   3   29.30   16.90 
  -7   9  -3    9.40   15.60 
  -8   9   3    3.00   15.20 
  -8  -9  -3   -4.50   16.40 
  -8  -9  -3   -6.30   12.70 
  -8   9  -3    4.70   15.20 
  -8  -9   3   -4.70   14.80 
  -9   9   3   63.29   26.50 
  -9  -9  -3   50.89   21.70 
  -9   9  -3   81.99   32.60 
   0 -10   3   -2.60    7.80 
   0  10  -3    1.50    6.60 
   0 -10  -3   -0.20    6.80 
   0  10   3   -0.20    7.20 
   1  10  -3   10.50    9.30 
   1 -10   3    9.60    9.90 
  -1  10   3    7.90    8.10 
  -1 -10  -3    7.50    9.90 
  -1  10  -3   18.50   10.20 
  -1 -10   3   29.00   14.00 
   1  10   3    5.30    7.80 
   1 -10  -3    8.00    9.60 
  -2  10   3   26.70   10.30 
  -2 -10  -3   28.90   13.50 
   2 -10   3   39.40   15.10 
  -2  10   3   29.10   12.20 
   2  10  -3   25.20   11.50 
  -2  10  -3   33.80   12.70 
   2 -10  -3   24.80   11.30 
  -2 -10   3   39.00   16.70 
  -3  10   3  413.16   45.10 
  -3 -10  -3  318.47   42.70 
   3  10  -3  302.07   32.80 
  -3  10   3  295.17   31.20 
  -3 -10   3  348.77   45.00 
  -3  10  -3  315.07   39.90 
  -4  10   3   60.89   16.60 
  -4 -10  -3   41.50   13.80 
  -4 -10  -3   40.00   16.60 
  -4 -10   3   47.30   18.50 
  -4  10  -3   69.39   20.50 
  -5 -10  -3  272.37   32.30 
  -5 -10  -3  261.67   40.30 
  -5  10   3  306.57   37.00 
  -5 -10   3  267.87   41.90 
  -5  10  -3  292.07   42.60 
  -6 -10  -3   25.80   13.90 
  -6  10   3   30.50   15.90 
  -6 -10  -3   57.69   20.10 
  -6  10  -3   61.79   22.10 
  -6 -10   3   26.60   15.70 
  -7 -10  -3  118.49   28.80 
  -7  10   3  156.38   35.70 
  -7 -10  -3  165.58   30.10 
  -7 -10   3  119.89   28.90 
  -7  10  -3  145.09   32.90 
  -8 -10  -3   -1.70   13.80 
  -8 -10   3    6.10   18.30 
  -8  10  -3   12.00   19.10 
   0 -11  -3   -4.00    8.80 
   0  11  -3   -3.10    6.20 
   0  11   3   -1.50    7.60 
   0 -11   3    2.50    9.60 
  -1 -11  -3  529.05   55.09 
   1  11  -3  574.04   42.70 
   1 -11   3  612.04   48.90 
  -1  11   3  590.74   43.10 
  -1 -11   3  634.24   51.99 
  -1  11  -3  618.44   46.30 
   1 -11  -3  626.34   46.40 
   2  11  -3   99.19   20.10 
  -2 -11  -3   92.29   23.20 
  -2  11   3   96.79   21.70 
   2 -11   3  118.89   25.30 
  -2 -11   3  123.29   28.20 
  -2  11  -3   82.39   20.50 
   2 -11  -3   57.29   16.60 
  -3  11   3  158.88   27.00 
   3  11  -3  177.88   26.40 
  -3 -11  -3   71.89   21.80 
  -3 -11   3  128.39   28.10 
  -3  11  -3  129.39   25.60 
  -4 -11  -3   24.20   14.50 
  -4  11   3   29.10   14.90 
  -4 -11   3   48.70   19.60 
  -4  11  -3   48.20   17.60 
  -5  11   3  274.37   41.50 
  -5 -11  -3  184.08   35.00 
  -5  11  -3  304.47   46.00 
  -5 -11   3  171.78   34.90 
  -6  11   3  126.39   29.80 
  -6 -11  -3  117.59   29.80 
  -6  11  -3  142.69   33.00 
  -6 -11   3   73.39   24.60 
  -7 -11  -3   13.90   15.50 
  -7  11   3   19.30   17.30 
  -7  11  -3   24.50   18.80 
  -7 -11   3   20.30   16.90 
  -8  11   3   34.60   22.20 
  -8 -11  -3   26.00   18.40 
  -8 -11   3   13.60   20.50 
  -8  11  -3   13.70   20.20 
   0  12  -3   -2.50    6.30 
   0 -12   3    0.70   11.30 
   0 -12  -3   -9.20    8.50 
   1  12  -3  204.68   28.80 
   1 -12   3  192.18   33.10 
  -1  12   3  205.78   29.80 
  -1 -12  -3  193.28   32.60 
  -1 -12   3  190.58   35.00 
   1 -12  -3  179.58   29.90 
  -1  12  -3  135.99   26.30 
  -2  12   3   84.59   20.80 
   2  12  -3   85.19   19.40 
   2 -12   3   81.49   22.90 
  -2 -12  -3   61.09   21.00 
   2 -12  -3   73.09   19.60 
  -2 -12   3   96.39   25.40 
  -2  12  -3  121.29   26.10 
  -3 -12  -3   13.00   12.90 
  -3  12   3   37.30   15.00 
  -3 -12   3    7.50   13.00 
  -3  12  -3   10.90   11.00 
  -4 -12  -3   18.60   13.30 
  -4  12   3   23.10   14.50 
  -4  12  -3    6.40   11.30 
  -4 -12   3   22.80   17.20 
  -5 -12  -3   90.09   25.70 
  -5  12   3  116.69   26.60 
  -5  12  -3  139.99   32.60 
  -5 -12   3   90.99   26.50 
  -6 -12  -3   29.30   18.30 
  -6  12   3    9.50   14.60 
  -6  12  -3   22.70   17.90 
  -6 -12   3   12.80   15.70 
  -7 -12  -3  177.18   36.50 
  -7  12   3   97.29   29.40 
  -7  12  -3  168.78   39.10 
  -7 -12   3  103.19   31.30 
   0 -13  -3   -5.00    9.90 
   0 -13   3    5.10   13.70 
   0  13  -3   -8.50    9.10 
   1 -13   3  357.96   47.70 
  -1 -13  -3  256.67   40.20 
   1  13  -3  352.86   41.20 
  -1  13   3  301.97   37.90 
  -1 -13   3  430.56   54.39 
  -1  13  -3  444.86   47.60 
   1 -13  -3  303.87   40.30 
  -2 -13  -3  180.88   35.10 
   2 -13   3  155.68   32.20 
  -2  13   3  205.48   32.40 
  -2  13  -3  211.58   33.90 
   2 -13  -3  181.58   31.00 
  -2 -13   3  138.79   33.10 
  -3  13   3   82.19   22.00 
  -3 -13  -3   74.59   22.90 
  -3 -13   3   74.79   24.60 
  -3  13  -3   74.09   23.30 
  -4  13   3   33.70   18.30 
  -4 -13  -3   14.60   13.30 
  -4 -13   3   44.60   19.80 
  -4  13  -3    8.50   11.80 
  -5 -13  -3    4.90   14.50 
  -5  13   3   -7.10   12.10 
  -5 -13   3   -4.10   11.70 
  -5  13  -3   -3.50   11.70 
  -6  13   3   19.00   16.80 
  -6 -13  -3   42.80   19.80 
  -6 -13   3    3.40   12.70 
  -6  13  -3    1.10   15.10 
   0  14  -3    2.90   11.10 
   0 -14  -3    6.80   13.80 
   0 -14   3    8.00   12.90 
   1  14  -3   18.10   13.60 
  -1 -14  -3    5.70   14.30 
   1 -14   3   27.50   17.50 
  -1  14  -3   23.30   14.60 
   1 -14  -3   15.60   15.20 
  -1 -14   3   16.40   16.10 
  -2  14   3   11.40   14.40 
   2 -14   3    0.10   14.20 
  -2 -14  -3    7.10   12.30 
  -2  14  -3   -2.50   10.90 
  -2 -14   3    6.70   14.00 
  -3  14   3  101.09   26.60 
  -3 -14  -3   57.69   23.80 
  -3  14  -3   64.99   23.10 
  -3 -14   3   68.99   23.20 
  -4  14   3    8.40   14.50 
  -4 -14  -3    6.40   15.60 
  -4 -14   3    1.30   13.30 
  -4  14  -3   15.50   14.50 
  -5  14   3  181.68   36.40 
  -5 -14  -3  191.88   39.90 
  -5  14  -3  280.97   46.00 
   0 -15   3  -15.90   13.30 
   0  15  -3    4.40   14.20 
   0 -15  -3   10.40   15.30 
  -1 -15  -3   91.99   27.50 
   1 -15   3  158.48   34.90 
  -1 -15   3  129.79   31.70 
   1 -15  -3  143.39   30.90 
  -1  15  -3  133.19   28.40 
  -2 -15  -3   32.10   20.20 
  -2 -15   3   50.09   22.90 
  -2  15  -3   51.99   20.30 
  -3 -15  -3    9.70   17.20 
  -3  15   3   37.40   19.50 
  -3 -15   3   86.99   28.60 
  -3  15  -3   77.79   24.80 
  -4  15   3    4.60   15.30 
  -4 -15  -3   -8.50   15.50 
  -4 -15   3   14.90   18.50 
  -4  15  -3   -7.10   14.90 
   0 -16  -3   -5.80   16.20 
   0 -16   3    1.90   16.20 
  -1 -16  -3   33.30   20.20 
   1 -16   3   70.39   28.00 
  -1 -16   3   81.39   28.50 
   1 -16  -3   69.09   27.30 
  -1  16  -3   50.49   22.10 
  -2 -16  -3    4.40   15.70 
  -2 -16   3   18.80   17.50 
  -2  16  -3   -6.00   15.00 
   0   0   4 9999.00  381.16 
  -1   0   4   -0.30    2.80 
  -1   0  -4    1.60    2.70 
   1   0   4    0.30    2.50 
  -1   0  -4   -3.00    1.30 
  -2   0   4 1940.11   86.69 
  -2   0  -4 2084.69   83.39 
  -2   0   4 1940.11   85.39 
   2   0   4 2086.99   86.79 
  -2   0  -4 2157.18   87.39 
   3   0   4   -2.00    2.70 
  -3   0   4   -1.20    3.10 
  -3   0  -4   -2.90    3.50 
  -3   0  -4    2.50    3.30 
  -3   0   4    7.30    5.40 
   4   0   4  686.83   37.10 
  -4   0  -4  692.33   41.70 
  -4   0   4  729.93   37.20 
  -4   0   4  679.93   41.60 
  -4   0  -4  730.73   36.30 
   5   0   4   -3.60    4.00 
  -5   0  -4   -4.40    4.90 
  -5   0   4    5.50    4.90 
  -5   0  -4   -1.30    4.20 
  -5   0   4   -1.30    5.50 
  -6   0   4  125.89   22.50 
  -6   0  -4  163.98   20.50 
  -6   0  -4  161.68   25.60 
  -7   0   4    6.90    9.20 
  -7   0  -4   -2.70    7.70 
  -8   0   4  159.08   31.10 
  -8   0  -4  135.19   27.70 
  -9   0   4  -10.80   13.20 
  -9   0  -4   -0.90   11.10 
 -10   0  -4   -4.80   14.20 
 -10   0   4   -3.10   11.80 
 -11   0  -4   -8.30   15.40 
 -11   0   4    7.60   19.40 
   0  -1   4  978.50   46.10 
   0   1  -4  976.00   45.60 
   0   1   4 1029.10   46.90 
  -1  -1  -4 1291.87   58.39 
  -1   1   4 1251.17   58.09 
   1  -1   4 1350.26   59.19 
  -1   1  -4 1420.86   58.39 
  -1  -1   4 1284.67   59.19 
  -1   1  -4 1385.96   57.09 
   1   1   4 1304.17   59.39 
  -2  -1  -4  353.96   22.40 
  -2   1   4  312.27   19.70 
   2  -1   4  315.37   20.10 
  -2  -1  -4  319.27   16.90 
  -2  -1   4  328.87   20.90 
  -2   1  -4  326.87   20.60 
  -2   1  -4  376.16   20.90 
   2   1   4  285.37   20.50 
  -2  -1   4  299.07   20.60 
  -3   1   4  552.94   29.70 
  -3  -1  -4  605.94   34.90 
  -3  -1  -4  557.14   27.20 
  -3   1   4  586.14   34.50 
   3   1   4  573.14   32.40 
  -3  -1   4  562.24   31.90 
  -3   1  -4  587.44   31.10 
  -3  -1   4  569.04   33.40 
  -3   1  -4  547.95   33.00 
   4  -1   4  644.64   34.50 
  -4  -1  -4  689.73   32.80 
  -4   1   4  623.84   39.90 
  -4  -1  -4  686.73   41.00 
  -4   1   4  657.33   33.60 
   4   1   4  668.93   37.10 
  -4  -1   4  668.53   40.10 
  -4   1  -4  621.64   39.00 
  -4  -1   4  670.73   36.50 
  -5   1   4   57.39    9.60 
  -5  -1  -4   30.00   10.60 
  -5  -1  -4   51.89    9.80 
   5  -1   4   43.60    9.10 
  -5   1   4   56.79   14.20 
   5   1   4   55.69   11.90 
  -5  -1   4   50.29   10.80 
  -5  -1   4   71.39   15.60 
  -5   1  -4   51.39   14.50 
  -6  -1  -4  765.82   50.79 
  -6   1   4  755.22   51.49 
   6   1   4  781.52   43.60 
  -6   1  -4  784.22   51.09 
  -6  -1   4  729.53   44.30 
  -6  -1   4  749.23   50.89 
  -7   1   4  220.98   33.80 
  -7  -1  -4  161.78   28.30 
  -7  -1   4  182.58   30.30 
  -7   1  -4  217.38   32.00 
  -7   1  -4  143.79   22.70 
  -8  -1  -4  309.47   41.80 
  -8   1   4  358.06   46.50 
  -8  -1   4  331.97   44.30 
  -8   1  -4  362.06   45.60 
  -9  -1  -4   11.60   13.30 
  -9   1   4    6.70   12.60 
  -9   1  -4   -2.20   12.90 
  -9  -1   4   24.80   16.40 
 -10   1   4   56.09   21.10 
 -10  -1  -4   45.30   22.40 
 -10   1  -4   21.40   17.20 
 -10  -1   4   58.79   24.40 
 -11  -1  -4    7.60   14.50 
 -11   1   4    9.80   21.90 
 -11   1  -4   29.30   20.00 
 -11  -1   4   57.69   27.10 
   0  -2   4 2028.10   88.29 
   0   2   4 2157.38   88.79 
   0   2  -4 2091.89   88.19 
  -1  -2  -4   48.90    8.90 
  -1  -2  -4   45.00    8.10 
  -1   2   4   48.60    8.60 
   1  -2   4   27.60    6.80 
   1   2   4   28.40    7.30 
  -1   2  -4   33.50    7.30 
  -1  -2   4   43.10    8.60 
  -1   2  -4   41.50    6.70 
  -2  -2  -4 1584.14   73.89 
   2  -2   4 1765.12   72.39 
  -2   2   4 1716.93   71.89 
  -2  -2   4 1648.34   74.99 
  -2  -2   4 1569.84   71.59 
  -2   2  -4 1656.53   71.89 
  -2   2  -4 1796.02   74.39 
  -3  -2  -4   32.80    9.10 
   3  -2   4   23.80    6.00 
  -3  -2  -4   28.60    4.30 
  -3   2   4   14.20    6.80 
  -3  -2  -4   23.80    7.60 
  -3   2   4   29.20    6.40 
  -3   2  -4   40.60    9.40 
  -3  -2   4   35.80    8.90 
  -3  -2   4   11.00    5.70 
  -3   2  -4   27.90    8.20 
  -4   2   4 1009.60   44.20 
   4  -2   4  946.21   44.60 
  -4   2   4  917.71   52.09 
  -4  -2  -4  908.21   49.50 
  -4  -2  -4  916.01   40.90 
  -4  -2  -4  931.01   52.19 
  -4   2  -4 1002.70   49.90 
  -4  -2   4  993.60   50.29 
  -4   2  -4  948.51   51.19 
  -4  -2   4  866.61   50.09 
  -5  -2  -4   24.60    8.60 
  -5   2   4   28.00   11.10 
   5  -2   4   16.70    5.70 
  -5  -2  -4   25.20   10.70 
  -5   2   4   14.40    8.60 
  -5  -2   4   14.00    8.30 
  -5   2  -4   16.40    8.30 
  -5  -2   4   32.90   10.00 
  -5   2  -4   11.80    8.40 
  -6   2   4   51.39   15.00 
  -6  -2  -4   88.99   20.10 
  -6   2  -4  107.49   19.30 
  -6   2  -4   52.09   15.80 
  -6  -2   4   82.59   16.00 
  -6  -2   4   89.19   18.90 
  -7   2   4   30.50   14.00 
  -7  -2  -4    5.70   10.20 
  -7   2  -4   16.50   11.60 
  -7   2  -4   -0.40    9.50 
  -7  -2   4    7.80   11.10 
  -8   2   4  130.09   28.70 
  -8  -2  -4  134.19   28.30 
  -8  -2   4  129.79   27.70 
  -8   2  -4  128.79   26.40 
  -9  -2  -4   33.80   15.40 
  -9   2   4    2.10   12.10 
  -9   2  -4    7.60   12.60 
  -9  -2   4   19.20   14.40 
 -10   2   4   37.10   19.10 
 -10  -2  -4  102.59   28.80 
 -10  -2   4   75.69   26.70 
 -10   2  -4   63.49   24.20 
 -11  -2  -4    0.10   15.30 
 -11   2   4    9.90   17.50 
 -11  -2   4   11.20   20.00 
 -11   2  -4   -1.20   15.70 
   0  -3  -4   26.60    7.00 
   0   3  -4    7.90    4.40 
   0  -3   4   21.00    6.40 
  -1   3   4  235.18   17.10 
  -1  -3  -4  260.17   18.10 
   1  -3   4  229.58   17.40 
   1   3  -4  233.78   18.20 
  -1  -3  -4  218.58   18.50 
  -1  -3   4  244.08   14.30 
  -1  -3   4  257.07   19.40 
  -1   3  -4  228.78   13.80 
  -1   3  -4  251.07   18.50 
  -2  -3  -4  251.27   24.30 
   2  -3   4  231.08   16.10 
  -2  -3  -4  170.38   18.20 
  -2   3   4  185.68   14.40 
  -2   3  -4  228.08   22.00 
  -2   3  -4  172.28   13.90 
  -2  -3   4  160.18   18.90 
  -2  -3   4  187.78   14.30 
  -3   3   4   12.00    4.60 
  -3   3   4    6.40    5.40 
  -3  -3  -4   -1.10    4.30 
   3  -3   4    3.70    3.40 
  -3  -3  -4    7.90    5.90 
  -3   3  -4    7.60    5.70 
  -3   3  -4    3.50    4.40 
  -3  -3   4    9.30    5.10 
  -3  -3   4   11.20    6.10 
  -4   3   4  306.07   17.90 
  -4  -3  -4  221.98   25.80 
  -4   3   4  247.58   27.70 
   4  -3   4  269.77   18.30 
  -4  -3  -4  253.97   28.70 
  -4  -3   4  274.77   28.20 
  -4  -3   4  279.27   27.70 
  -4   3  -4  276.87   23.00 
  -4   3  -4  320.97   30.70 
  -5   3   4   31.40   12.80 
  -5  -3  -4   79.49   17.30 
  -5  -3  -4   67.19   14.90 
  -5   3  -4   63.39   15.30 
  -5   3  -4   89.79   17.80 
  -5  -3   4   53.99   13.70 
  -5  -3   4   54.09   14.30 
  -6   3   4  485.05   40.30 
  -6  -3  -4  530.65   37.70 
  -6  -3  -4  427.76   44.40 
  -6  -3   4  474.05   36.90 
  -6   3  -4  541.65   40.80 
  -6   3  -4  535.35   39.60 
  -6  -3   4  526.65   40.20 
  -7  -3  -4  335.37   41.20 
  -7   3   4  239.48   36.50 
  -7  -3  -4  351.96   35.80 
  -7  -3   4  318.97   40.20 
  -7   3  -4  338.67   42.10 
  -7   3  -4  340.17   40.90 
  -8  -3  -4  450.05   51.29 
  -8   3   4  408.06   50.09 
  -8   3  -4  474.25   50.79 
  -8  -3   4  385.86   47.60 
  -8   3  -4  433.26   50.09 
  -9   3   4    3.00   11.60 
  -9  -3  -4    6.60   11.70 
  -9  -3   4    7.00   16.20 
  -9   3  -4    2.70   13.40 
 -10  -3  -4   43.60   22.80 
 -10   3   4   61.29   22.80 
 -10   3  -4   36.00   19.60 
 -10  -3   4   66.89   24.60 
   0  -4   4 4976.90  203.08 
   0   4  -4 5124.89  202.78 
   0  -4  -4 5110.49  203.78 
  -1  -4  -4    1.50    4.20 
  -1  -4  -4   14.10    6.10 
   1  -4   4    4.60    4.40 
   1   4  -4    3.80    3.80 
  -1  -4   4    1.20    4.00 
  -1  -4   4    1.60    2.30 
   1  -4  -4    3.40    3.30 
  -1   4  -4    3.50    2.50 
  -1   4  -4    5.10    4.30 
   2  -4   4 1317.07   59.79 
  -2  -4  -4 1321.97   61.49 
  -2  -4  -4 1195.58   64.39 
  -2   4   4 1340.67   59.19 
  -2   4  -4 1214.28   55.99 
  -2  -4   4 1326.87   56.89 
  -2  -4   4 1381.46   65.39 
  -2   4  -4 1257.57   62.69 
  -3  -4  -4   14.10    7.40 
   3  -4   4   10.80    5.10 
  -3  -4  -4   11.10    7.00 
  -3   4   4   19.30    7.90 
  -3   4   4   13.30    5.20 
  -3   4  -4   33.00    9.30 
  -3   4  -4   13.00    6.10 
  -3  -4   4   -3.00    3.30 
  -3  -4   4   16.20    7.70 
   4  -4   4  666.03   34.70 
  -4   4   4  736.93   33.60 
  -4  -4  -4  659.43   42.10 
  -4   4   4  636.04   42.00 
  -4  -4  -4  689.53   44.40 
  -4  -4   4  663.93   42.80 
  -4   4  -4  650.43   41.60 
  -4   4  -4  673.83   40.10 
  -4  -4   4  657.33   39.80 
  -5  -4  -4   39.10   12.70 
  -5  -4  -4   64.69   15.20 
  -5   4   4   30.30   11.60 
  -5   4  -4   62.39   15.50 
  -5  -4   4   42.90   13.40 
  -5  -4   4   50.19   13.90 
  -5   4  -4   52.99   13.30 
  -6  -4  -4  105.89   20.80 
  -6   4   4   89.59   19.40 
  -6  -4  -4  115.19   23.00 
  -6   4  -4  132.79   24.20 
  -6  -4   4   91.09   18.70 
  -6   4  -4   71.59   17.80 
  -6  -4   4  119.39   22.40 
  -7  -4  -4   15.80   12.70 
  -7   4   4   28.30   15.60 
  -7  -4  -4    9.90   11.00 
  -7  -4   4   45.70   23.80 
  -7  -4   4   10.60   11.40 
  -7   4  -4   33.40   15.70 
  -7   4  -4   43.20   16.70 
  -8  -4  -4   10.20   13.20 
  -8   4   4    7.20   12.20 
  -8  -4   4    4.70   12.10 
  -8   4  -4   17.50   14.90 
  -8   4  -4    8.00   15.20 
  -9  -4  -4   28.50   18.20 
  -9   4   4   25.10   16.80 
  -9   4  -4   42.80   20.40 
  -9  -4   4   41.90   20.20 
 -10   4   4   -5.00   13.70 
 -10  -4  -4   20.40   19.70 
 -10   4  -4   14.80   17.30 
 -10  -4   4    7.10   16.00 
   0   5  -4  437.26   29.70 
   0  -5   4  494.15   31.30 
   0  -5  -4  450.75   30.60 
  -1  -5  -4 1221.58   58.89 
   1   5  -4 1135.79   59.49 
  -1  -5  -4 1217.28   63.79 
   1  -5   4 1295.97   60.99 
  -1  -5   4 1261.17   50.49 
  -1   5  -4 1197.28   49.70 
  -1  -5   4 1344.07   64.29 
  -1   5  -4 1241.28   61.59 
   1  -5  -4 1253.67   60.49 
   2  -5   4   89.09   13.50 
  -2  -5  -4   94.19   17.00 
  -2  -5  -4   82.89   13.60 
  -2  -5   4  131.09   19.70 
  -2  -5   4  126.09   12.70 
  -2   5  -4   83.79   15.30 
   2   5   4  108.19    7.10 
  -2   5  -4   86.79   10.50 
  -3   5   4  518.55   34.10 
  -3   5   4  515.25   29.50 
   3  -5   4  495.15   30.50 
  -3  -5  -4  574.14   34.90 
  -3  -5  -4  560.34   39.10 
  -3  -5   4  510.75   30.30 
  -3  -5   4  502.05   36.50 
  -3   5  -4  545.35   36.00 
  -3   5  -4  503.15   30.00 
  -4  -5  -4  416.46   35.50 
  -4  -5  -4  407.96   32.30 
   4  -5   4  454.45   27.70 
  -4   5   4  458.05   33.50 
  -4   5   4  457.25   25.70 
  -4  -5   4  431.36   34.90 
  -4   5  -4  453.65   30.90 
  -4   5  -4  470.85   34.50 
  -5  -5  -4   19.40    9.80 
  -5   5   4    8.90    8.70 
  -5  -5  -4   26.70   12.10 
  -5   5  -4   29.20   12.70 
  -5   5  -4   10.50    9.40 
  -5  -5   4    1.90    7.70 
  -5  -5   4    6.80    8.00 
  -6  -5  -4  433.26   45.10 
  -6  -5  -4  508.25   41.10 
  -6   5   4  419.96   44.00 
  -6  -5   4  500.35   37.90 
  -6  -5   4  509.45   41.10 
  -6   5  -4  388.96   44.00 
  -6   5  -4  467.65   46.10 
  -7  -5  -4   81.89   21.30 
  -7   5   4   95.79   23.40 
  -7  -5  -4   86.29   20.10 
  -7  -5   4   68.29   20.50 
  -7   5  -4   88.39   23.50 
  -7  -5   4   65.99   18.70 
  -7   5  -4  107.59   24.60 
  -8   5   4   69.49   21.70 
  -8  -5  -4  151.68   30.50 
  -8   5  -4  142.09   31.30 
  -8  -5   4  109.19   24.90 
  -8   5  -4   87.49   23.80 
  -9  -5  -4    2.40   12.70 
  -9   5   4   23.60   18.10 
  -9   5  -4   -0.70   13.70 
  -9   5  -4    9.70   18.00 
  -9  -5   4    6.20   13.90 
 -10   5   4   12.10   18.20 
 -10  -5  -4   24.20   22.30 
 -10  -5   4   17.60   20.40 
 -10   5  -4   26.40   18.60 
   0  -6   4  481.25   33.90 
   0   6  -4  545.05   34.30 
   0  -6  -4  490.15   34.20 
  -1  -6  -4  120.29   20.20 
   1   6  -4  124.19   17.70 
   1  -6   4  119.59   17.80 
   1  -6  -4  137.89   18.20 
  -1   6  -4  116.29   19.00 
  -1  -6   4  122.49   19.30 
   2  -6   4  284.47   22.80 
   2   6  -4  246.98   25.30 
  -2  -6  -4  276.87   32.20 
  -2  -6  -4  290.07   22.10 
  -2  -6   4  260.07   16.70 
  -2   6  -4  285.47   16.70 
  -2  -6   4  254.57   29.70 
   2   6   4  250.37   14.80 
  -2   6  -4  265.67   27.90 
   2  -6  -4  276.97   21.40 
  -3  -6  -4  332.77   26.70 
  -3   6   4  377.66   28.50 
  -3  -6  -4  389.46   40.00 
   3  -6   4  361.76   26.10 
  -3  -6   4  348.67   23.60 
  -3   6  -4  372.56   24.10 
  -3  -6   4  367.56   37.80 
  -3   6  -4  382.06   30.30 
   3  -6  -4  384.36   24.50 
  -4  -6  -4  434.26   45.30 
  -4   6   4  434.86   33.10 
  -4   6   4  425.86   26.50 
  -4  -6  -4  352.36   30.50 
   4  -6   4  398.46   27.50 
  -4  -6   4  475.95   46.60 
  -4   6  -4  461.15   36.00 
  -4   6  -4  416.76   29.80 
  -4  -6   4  433.26   29.20 
  -5  -6  -4    5.90    7.80 
  -5   6   4    9.70    9.20 
  -5  -6  -4   14.30   11.50 
  -5   6  -4    3.60    7.60 
  -5   6  -4   15.00    9.90 
  -5  -6   4   -0.70    6.50 
  -5  -6   4   17.10    9.30 
  -6   6   4   20.90   11.70 
  -6  -6  -4   43.60   15.00 
  -6  -6  -4   37.10   14.70 
  -6  -6   4   33.30   13.60 
  -6  -6   4   19.00   11.90 
  -6   6  -4   30.30   15.10 
  -6   6  -4   72.69   18.90 
  -7  -6  -4   69.69   19.30 
  -7   6   4   46.00   18.80 
  -7  -6  -4   42.90   16.30 
  -7   6  -4   35.40   17.60 
  -7   6  -4   50.19   19.10 
  -7  -6   4   38.10   15.70 
  -7  -6   4   38.10   17.40 
  -8  -6  -4  181.28   32.30 
  -8   6   4  156.38   31.60 
  -8   6  -4  183.98   35.90 
  -8   6  -4  235.98   38.80 
  -8  -6   4  285.77   40.10 
  -9  -6  -4   61.09   20.60 
  -9   6   4   63.29   23.90 
  -9  -6   4   48.00   22.50 
  -9   6  -4   64.39   26.00 
  -9   6  -4    3.20   16.10 
 -10   6   4   33.00   20.60 
 -10  -6  -4   35.60   23.00 
 -10  -6   4   49.60   23.70 
 -10   6  -4   20.10   20.20 
   0  -7  -4   31.00   11.10 
   0   7  -4   32.50   10.80 
   0  -7   4   40.80   12.30 
   1   7  -4  211.78   25.80 
  -1  -7  -4  160.18   24.50 
   1  -7   4  168.58   23.90 
   1  -7  -4  219.28   25.30 
  -1   7  -4  187.48   24.30 
   1   7   4  187.18   17.90 
  -1  -7   4  184.68   25.60 
   2  -7   4   77.89   14.90 
  -2  -7  -4   92.39   14.80 
   2   7  -4   68.69   14.30 
  -2  -7  -4   81.69   18.30 
  -2  -7   4  100.59   19.40 
   2   7   4   94.19   11.30 
  -2   7  -4   44.80   12.10 
   2  -7  -4  101.89   15.70 
  -3  -7  -4   27.00   13.00 
  -3   7   4   56.19   13.70 
  -3  -7  -4   43.60   11.70 
  -3   7  -4   54.89   10.60 
   3  -7  -4   58.99   11.50 
  -3  -7   4   49.70   15.60 
  -3   7  -4   59.49   14.70 
   4  -7   4   88.59   19.90 
  -4  -7  -4   77.69   15.60 
  -4   7   4   57.89   14.60 
  -4  -7  -4   35.10   14.40 
  -4   7  -4   74.59   18.00 
  -4  -7   4  112.29   16.10 
  -4  -7   4   63.89   18.00 
  -4   7  -4   87.29   15.60 
  -5   7   4  129.79   22.90 
  -5  -7  -4  112.39   24.10 
  -5  -7  -4  119.79   21.40 
  -5   7  -4  182.78   25.20 
  -5   7  -4  207.98   31.30 
  -5  -7   4  169.78   23.00 
  -5  -7   4  159.88   28.90 
  -6  -7  -4  158.88   28.60 
  -6   7   4  107.89   23.40 
  -6  -7  -4  136.09   24.10 
  -6  -7   4  126.09   26.50 
  -6   7  -4  113.39   27.00 
  -6  -7   4  126.59   22.30 
  -6   7  -4  158.28   27.80 
  -7   7   4  217.58   34.20 
  -7  -7  -4  261.37   36.50 
  -7  -7  -4  224.08   35.60 
  -7  -7   4  226.18   36.30 
  -7   7  -4  288.17   39.80 
  -7   7  -4  246.38   40.80 
  -7  -7   4  178.98   28.60 
  -8  -7  -4  183.58   33.80 
  -8   7   4  219.48   37.00 
  -8  -7  -4  274.27   38.90 
  -8   7  -4  211.78   38.90 
  -8   7  -4  278.97   42.20 
  -8  -7   4  262.47   36.70 
  -9  -7  -4    1.90   13.20 
  -9   7   4   27.80   18.50 
  -9  -7   4   14.00   17.50 
  -9   7  -4    9.20   18.10 
  -9   7  -4   -1.20   18.90 
 -10   7   4   29.60   24.40 
 -10  -7  -4   40.80   22.70 
 -10  -7   4   49.50   39.20 
 -10   7  -4   -7.30   21.40 
   0   8   4  885.11   48.60 
   0   8  -4  971.10   54.19 
   0  -8  -4  870.71   54.69 
   0  -8   4  923.41   56.29 
   1   8  -4   17.50    8.40 
   1  -8   4    8.80    8.50 
  -1  -8  -4   19.00    9.80 
  -1   8  -4    9.60    7.90 
   1  -8  -4    8.10    7.00 
   1   8   4    9.00    6.20 
  -1  -8   4    2.20    6.00 
  -2  -8  -4  179.88   28.00 
  -2  -8  -4  147.39   19.80 
   2  -8   4  161.48   23.20 
   2   8  -4  169.88   23.50 
  -2   8  -4  195.58   27.60 
  -2  -8   4  162.08   27.40 
   2  -8  -4  189.08   23.30 
  -3   8   4   14.20    8.90 
   3  -8   4    0.40    6.00 
  -3  -8  -4    8.10    7.70 
  -3  -8  -4   13.30   11.20 
  -3   8  -4    5.90    7.20 
   3  -8  -4   13.60    7.90 
  -3  -8   4   17.30   10.70 
  -4  -8  -4  113.99   25.40 
  -4  -8  -4  121.09   20.20 
  -4   8   4  174.58   25.00 
  -4  -8   4  220.38   34.20 
  -4   8  -4  151.08   26.40 
  -5   8   4   35.80   13.60 
  -5  -8  -4   31.10   15.30 
  -5  -8  -4   56.59   16.60 
  -5  -8   4   23.80   13.00 
  -5   8  -4   61.79   19.00 
  -6  -8  -4   41.50   17.30 
  -6  -8  -4   14.40   11.50 
  -6   8   4   25.50   14.40 
  -6  -8   4    6.40   11.40 
  -6   8  -4    4.50   12.30 
  -7   8   4   35.80   16.30 
  -7  -8  -4   10.50   11.90 
  -7  -8  -4   44.30   18.50 
  -7   8  -4   32.00   19.10 
  -7  -8   4   33.70   18.80 
  -8  -8  -4   10.10   14.70 
  -8   8   4   16.10   14.80 
  -8  -8  -4   -6.10   11.60 
  -8  -8   4  -11.30   17.00 
  -8   8  -4   10.40   15.20 
  -9   8   4   55.09   25.50 
  -9  -8  -4   50.29   21.30 
  -9   8  -4   26.20   24.10 
   0  -9  -4  335.67   38.80 
   0   9   4  445.56   30.80 
   0  -9   4  469.25   46.00 
   0   9  -4  395.36   33.30 
  -1  -9  -4  189.68   29.70 
   1   9  -4  172.88   25.00 
   1  -9   4  150.08   25.80 
   1  -9  -4  157.08   24.30 
   1   9   4  151.78   18.80 
  -1  -9   4  178.18   28.40 
  -1   9  -4  138.99   23.00 
  -2  -9  -4   63.59   18.60 
   2   9  -4   55.89   14.40 
   2  -9   4   80.09   18.70 
  -2   9  -4   51.39   16.10 
   2  -9  -4   65.99   15.50 
  -2  -9   4   66.29   18.60 
   3  -9   4  529.35   38.70 
  -3  -9  -4  495.15   52.19 
  -3  -9  -4  482.65   34.10 
  -3   9   4  419.46   33.10 
   3  -9  -4  433.56   32.80 
  -3   9  -4  428.36   46.00 
  -3  -9   4  485.95   53.49 
  -4  -9  -4  119.39   20.90 
  -4   9   4  110.09   21.20 
  -4  -9  -4  109.49   25.50 
  -4  -9   4   87.59   23.90 
  -4   9  -4  102.39   22.50 
  -5   9   4  165.28   26.60 
  -5  -9  -4  147.19   24.40 
  -5  -9  -4  103.99   25.20 
  -5   9  -4  176.68   31.60 
  -5  -9   4   67.79   21.40 
  -6   9   4  122.09   24.40 
  -6  -9  -4  125.79   25.00 
  -6  -9  -4  143.99   30.80 
  -6  -9   4   93.29   25.50 
  -6   9  -4  120.09   29.00 
  -7   9   4   36.50   18.20 
  -7  -9  -4   40.50   16.80 
  -7  -9  -4   79.59   24.60 
  -7   9  -4   25.40   17.20 
  -7  -9   4   43.70   20.30 
  -8   9   4    7.30   16.50 
  -8  -9  -4   37.40   19.00 
  -8  -9  -4    9.80   15.60 
  -8   9  -4   -5.20   13.80 
  -8  -9   4   20.70   18.10 
  -9  -9  -4   -0.70   15.60 
  -9   9   4   12.60   17.80 
  -9   9  -4    9.20   22.60 
   0  10   4   10.90    8.60 
   0  10  -4    5.80    8.60 
   0 -10   4    9.80    9.30 
   0 -10  -4   -1.90    8.30 
   1 -10   4  131.99   25.20 
  -1  10   4  134.59   21.40 
   1  10  -4   98.79   18.90 
  -1 -10  -4   65.89   19.00 
  -1 -10   4   88.89   22.40 
   1 -10  -4   96.89   19.80 
  -1  10  -4   72.89   18.70 
   2  10  -4   48.20   14.80 
   2 -10   4   72.59   19.20 
  -2 -10  -4   74.39   20.60 
  -2  10  -4   45.10   14.40 
   2 -10  -4   40.80   13.30 
  -2 -10   4   31.60   15.00 
   3  10  -4  326.27   35.10 
   3 -10   4  374.06   41.40 
  -3  10   4  247.28   29.20 
  -3 -10  -4  359.06   28.90 
  -3 -10  -4  257.37   38.70 
  -3  10  -4  257.97   36.80 
  -3 -10   4  292.87   42.40 
  -4  10   4   79.49   18.20 
  -4 -10  -4   19.40   13.90 
  -4 -10  -4   82.79   18.30 
  -4 -10   4  126.29   28.80 
  -4  10  -4   72.89   20.50 
  -5 -10  -4    5.70   11.50 
  -5  10   4   -2.00    9.80 
  -5 -10  -4    7.80   10.90 
  -5  10  -4    1.70   10.60 
  -5 -10   4    3.60   14.00 
  -6 -10  -4    9.10   11.80 
  -6 -10  -4   -2.10   10.00 
  -6  10   4    3.00   12.30 
  -6  10  -4   -3.70   11.10 
  -6 -10   4   -1.90   10.40 
  -7 -10  -4   86.39   21.80 
  -7  10   4  108.19   28.20 
  -7 -10  -4   85.49   25.40 
  -7  10  -4   44.80   21.80 
  -7 -10   4   87.49   26.00 
  -8  10   4   59.99   24.90 
  -8 -10  -4   21.30   17.70 
  -8 -10  -4   51.29   20.60 
  -8  10  -4   48.60   25.30 
  -8 -10   4   71.19   25.30 
   0  11  -4   47.20   14.60 
   0 -11   4   49.10   19.60 
   0 -11  -4   10.50   11.90 
   0  11   4   21.50   11.70 
  -1  11   4   45.70   14.40 
   1 -11   4   74.59   21.70 
  -1 -11  -4   54.09   18.30 
   1  11  -4   79.59   18.50 
   1 -11  -4   67.89   18.60 
  -1 -11   4   70.49   21.50 
  -1  11  -4   49.30   17.50 
  -2  11   4   21.60   12.10 
   2 -11   4   19.50   14.30 
   2  11  -4   31.30   13.10 
  -2 -11  -4   34.60   16.10 
   2 -11  -4   34.00   14.60 
  -2 -11   4   25.70   15.80 
  -2  11  -4   49.70   16.00 
  -3 -11  -4   33.90   16.70 
   3  11  -4   27.80   12.60 
  -3  11   4   92.19   23.20 
  -3 -11   4   90.29   24.50 
  -3  11  -4   61.09   20.30 
  -4 -11  -4  107.99   27.50 
  -4 -11   4   80.99   25.40 
  -4  11  -4  112.29   26.40 
  -5 -11  -4  158.08   33.00 
  -5 -11   4  218.28   39.40 
  -5  11  -4  249.58   40.10 
  -6 -11  -4    6.20   13.40 
  -6 -11   4   -0.70   12.10 
  -6  11  -4   -1.60   13.90 
  -7 -11  -4   59.79   22.90 
  -7 -11   4   59.09   24.80 
  -7  11  -4   73.29   26.90 
  -8 -11  -4   81.59   27.50 
  -8 -11   4   34.80   21.80 
  -8  11  -4   46.50   27.10 
   0 -12   4  102.79   26.00 
   0  12  -4  127.89   24.70 
   0 -12  -4  172.18   30.70 
   1  12  -4    5.20    9.90 
   1 -12   4   -4.00    9.90 
  -1 -12  -4   35.60   16.60 
  -1  12   4   14.00   11.40 
   1 -12  -4    8.70   11.50 
  -1  12  -4   12.50   10.30 
  -1 -12   4   14.40   14.80 
  -2  12   4   14.40   11.30 
  -2 -12  -4   25.40   14.20 
   2 -12   4   31.90   17.20 
   2  12  -4   28.00   13.70 
   2 -12  -4   28.20   14.80 
  -2  12  -4   28.60   15.40 
  -2 -12   4   27.00   14.50 
   3  12  -4   -4.80   15.10 
  -3  12   4   10.20   10.90 
  -3 -12  -4    6.80   12.00 
  -3 -12   4   -2.10    9.70 
  -3  12  -4    3.40   10.40 
  -4 -12  -4   20.20   14.40 
  -4  12   4    6.70   11.70 
  -4  12  -4   39.90   18.20 
  -4 -12   4   38.00   18.10 
  -5 -12  -4   49.00   20.40 
  -5  12   4   52.69   21.10 
  -5 -12   4   59.09   23.20 
  -5  12  -4   21.70   15.80 
  -6 -12  -4   16.80   13.50 
  -6  12   4    3.20   13.50 
  -6  12  -4    6.40   14.00 
  -6 -12   4   30.80   20.00 
  -7 -12  -4   21.80   17.60 
  -7  12   4   33.80   22.40 
  -7 -12   4   20.70   21.50 
  -7  12  -4   17.70   17.90 
   0  13  -4  192.48   31.70 
   0 -13   4  201.38   36.90 
   0 -13  -4  194.48   33.20 
   1  13  -4   32.40   14.30 
  -1 -13  -4   16.30   14.10 
   1 -13   4   25.60   18.20 
   1 -13  -4   18.40   14.80 
  -1 -13   4   36.30   18.80 
  -1  13  -4   42.20   17.60 
   2 -13   4   81.39   24.50 
  -2  13   4   46.60   18.50 
   2  13  -4   57.19   18.20 
  -2 -13  -4   52.89   19.60 
  -2 -13   4   75.59   26.70 
  -2  13  -4   49.30   18.80 
   2 -13  -4   57.19   20.30 
  -3 -13  -4  133.79   30.10 
  -3  13   4  154.68   30.10 
  -3 -13   4  127.59   31.80 
  -3  13  -4   95.89   24.10 
  -4  13   4   28.40   16.40 
  -4 -13  -4    4.00   13.00 
  -4  13  -4   26.30   16.40 
  -4 -13   4   -2.80   14.40 
  -5 -13  -4   34.60   19.00 
  -5  13   4   82.69   24.70 
  -5 -13   4   65.59   23.90 
  -5  13  -4   40.70   19.60 
  -6 -13  -4   -0.70   15.90 
  -6  13   4   -4.00   11.30 
  -6  13  -4   -9.40   13.70 
  -6 -13   4    6.10   15.60 
   0 -14  -4   14.00   15.90 
   0 -14   4   12.20   15.50 
   0  14  -4   17.40   14.80 
  -1 -14  -4   49.30   20.80 
   1 -14   4   56.79   24.80 
   1  14  -4   62.69   20.10 
  -1 -14   4  108.89   29.70 
   1 -14  -4   38.90   18.60 
  -1  14  -4   50.19   18.80 
   2 -14   4   10.60   16.20 
  -2 -14  -4   -7.60   11.40 
  -2  14   4    0.40   13.10 
  -2  14  -4   -6.30   10.60 
  -2 -14   4   18.90   15.40 
  -3  14   4  177.08   34.80 
  -3 -14  -4  206.88   39.80 
  -3 -14   4  239.48   43.10 
  -3  14  -4  143.79   32.80 
  -4  14   4    2.60   12.50 
  -4 -14  -4   20.30   18.40 
  -4 -14   4    6.20   14.30 
  -4  14  -4    4.30   13.30 
  -5 -14  -4    7.90   15.50 
  -5  14   4   -4.30   14.30 
  -5  14  -4   -1.70   15.20 
  -5 -14   4  -12.20   12.70 
   0  15  -4   46.50   19.90 
   0 -15   4   58.09   24.50 
   0 -15  -4   21.50   14.60 
   1 -15   4   -2.20   16.10 
  -1 -15  -4   16.60   16.00 
  -1 -15   4    6.60   15.40 
   1 -15  -4   -2.00   14.10 
  -1  15  -4   -8.50   11.70 
  -2 -15  -4   10.90   16.20 
  -2  15  -4    8.30   14.40 
  -2 -15   4   14.90   19.50 
  -3  15   4   19.70   18.10 
  -3 -15  -4   19.00   17.00 
  -3  15  -4   39.00   20.80 
  -3 -15   4   24.40   18.60 
  -4  15   4   82.39   26.00 
  -4 -15  -4   96.59   28.30 
  -4  15  -4   89.19   28.20 
  -4 -15   4   52.09   24.90 
   0 -16  -4   -4.20   15.40 
   0 -16   4    0.60   19.00 
   0  16  -4    8.30   16.60 
   1 -16   4    8.90   19.50 
  -1 -16  -4  -13.00   12.20 
  -1 -16   4   -6.20   17.20 
  -1  16  -4    6.30   14.90 
  -2 -16  -4   11.30   17.40 
  -2  16  -4   14.70   16.40 
  -2 -16   4  -18.30   16.30 
   0   0   5    3.90    3.10 
   1   0   5   -1.10    2.40 
  -1   0   5   -0.70    2.80 
  -1   0  -5   -2.40    2.80 
  -1   0  -5    1.60    3.30 
   2   0   5  989.80   47.80 
  -2   0   5  910.01   46.50 
  -2   0  -5  949.90   46.70 
  -3   0   5   -2.30    4.00 
  -3   0  -5    0.60    3.00 
   3   0   5   -0.90    2.80 
  -3   0  -5    0.40    3.50 
  -3   0   5    0.40    3.70 
   4   0   5  813.72   43.40 
  -4   0   5  743.73   41.70 
  -4   0   5  735.63   46.20 
  -4   0  -5  894.81   41.60 
  -4   0  -5  845.42   47.70 
  -5   0   5   -5.10    4.70 
  -5   0  -5    4.00    6.50 
  -5   0  -5   -0.80    5.10 
  -5   0   5   -2.30    4.70 
   5   0   5    1.00    5.00 
  -6   0   5  733.53   53.09 
  -6   0  -5  802.72   53.19 
  -6   0  -5  981.30   62.29 
  -7   0   5   -3.10    7.70 
  -7   0  -5   -0.70    9.80 
  -8   0   5  158.28   31.20 
  -8   0  -5   93.89   23.00 
  -9   0   5   21.60   17.20 
  -9   0  -5   -7.80    9.10 
 -10   0   5   26.30   19.50 
 -10   0  -5   14.20   16.50 
 -11   0  -5   -3.00   17.00 
   0   1   5   -0.60    2.80 
   0  -1   5    4.60    4.00 
  -1  -1  -5  355.66   22.30 
   1  -1   5  358.26   23.20 
  -1   1   5  354.16   22.80 
  -1  -1   5  313.67   22.50 
  -1   1  -5  365.96   22.30 
  -1   1  -5  387.96   21.60 
   1   1   5  333.27   23.20 
   2  -1   5  371.06   24.20 
  -2   1   5  317.17   22.80 
  -2  -1  -5  382.56   20.70 
  -2  -1  -5  396.56   24.90 
  -2   1  -5  426.66   24.60 
  -2  -1   5  373.46   24.20 
  -2  -1   5  370.46   24.70 
   2   1   5  392.76   25.60 
  -2   1  -5  401.36   23.90 
  -3   1   5  375.46   24.20 
  -3   1   5  363.56   26.80 
   3  -1   5  445.16   25.90 
  -3  -1  -5  364.06   20.90 
  -3  -1  -5  383.16   27.00 
  -3  -1   5  394.36   26.00 
   3   1   5  377.16   25.90 
  -3   1  -5  355.76   23.70 
  -3  -1   5  392.16   26.70 
  -3   1  -5  417.46   27.00 
  -4   1   5  256.37   27.60 
  -4   1   5  244.98   18.60 
   4  -1   5  164.68   19.30 
  -4  -1  -5  250.67   16.60 
  -4  -1  -5  230.88   26.80 
  -4   1  -5  236.48   25.70 
  -4  -1   5  227.38   23.50 
  -4  -1   5  298.27   29.90 
   4   1   5  268.77   21.40 
  -5  -1  -5  306.57   21.00 
  -5   1   5  335.07   22.90 
  -5  -1  -5  353.36   35.60 
  -5   1   5  365.96   37.00 
   5  -1   5  321.97   23.10 
  -5   1  -5  266.77   22.80 
  -5  -1   5  325.27   24.90 
  -5   1  -5  300.27   31.70 
  -5  -1   5  274.97   31.20 
  -6  -1  -5    5.70    8.60 
  -6   1   5   38.20   15.00 
  -6  -1   5   24.00   11.70 
   6   1   5   32.40   10.70 
  -6   1  -5   20.00    9.20 
  -6  -1   5   25.10   11.10 
  -6   1  -5   15.60    9.20 
  -7  -1  -5   -4.90    7.10 
  -7   1   5    8.40   10.40 
  -7   1  -5    5.30   10.90 
  -7  -1   5   -4.00    7.90 
  -8  -1  -5   74.09   22.90 
  -8   1   5   46.80   19.20 
  -8   1  -5   35.00   16.50 
  -8  -1   5   45.00   17.70 
  -9  -1  -5   30.50   15.60 
  -9   1   5   53.99   23.00 
  -9   1  -5   40.30   19.40 
  -9  -1   5   46.70   20.70 
 -10   1   5   56.39   22.90 
 -10  -1  -5  104.79   27.90 
 -10   1  -5   81.69   24.70 
 -10  -1   5  133.89   34.60 
   0   2  -5   -4.30    2.90 
   0   2   5    3.00    3.90 
   0  -2   5    0.10    3.10 
  -1  -2  -5   55.09   10.00 
  -1   2   5   41.70    9.10 
   1  -2   5   59.89   11.00 
  -1   2  -5   64.19   11.00 
  -1   2  -5   50.89    7.80 
   1   2   5   34.40    8.90 
  -1  -2   5   50.59   10.50 
   2  -2   5 1880.71   82.29 
  -2  -2  -5 1746.93   83.09 
  -2   2   5 1842.72   81.59 
  -2   2  -5 2007.90   83.79 
  -2  -2   5 2063.09   85.99 
   2   2   5 1837.32   84.69 
  -2   2  -5 1876.51   81.29 
  -2  -2   5 1918.71   81.79 
  -3  -2  -5   18.60    7.60 
  -3   2   5   24.00    8.60 
  -3   2   5   12.70    5.10 
  -3  -2  -5   17.30    7.10 
  -3  -2  -5   26.20    4.90 
   3  -2   5   12.30    5.40 
  -3  -2   5   27.40    8.80 
   3   2   5   28.60    8.60 
  -3  -2   5   26.70    8.20 
  -3   2  -5   17.40    7.00 
  -3   2  -5   27.40    7.80 
  -4   2   5  995.70   52.69 
  -4  -2  -5  777.22   37.60 
   4  -2   5  889.11   43.90 
  -4   2   5  907.11   43.30 
  -4  -2  -5  827.02   47.60 
  -4  -2  -5  861.41   49.60 
  -4  -2   5  857.01   47.30 
  -4   2  -5  873.01   48.30 
  -4  -2   5  877.41   48.70 
  -4   2  -5  842.92   46.10 
   4   2   5  806.62   47.00 
   5  -2   5   18.00    6.80 
  -5  -2  -5   15.10    8.80 
  -5   2   5   16.10    6.70 
  -5   2   5   16.70    9.90 
  -5  -2   5   10.40    7.90 
  -5   2  -5   19.80    9.30 
  -5  -2   5   12.40    8.80 
  -5   2  -5   10.90    9.00 
   5   2   5   29.60   10.30 
  -6  -2  -5  127.29   23.20 
  -6   2   5  151.08   25.70 
  -6   2  -5  121.49   21.80 
  -6   2  -5  125.59   20.40 
  -6  -2   5  113.79   21.70 
  -6  -2   5  164.28   22.60 
  -7   2   5   36.70   16.80 
  -7  -2  -5   10.40   11.20 
  -7  -2   5   38.30   16.20 
  -7   2  -5   56.79   18.00 
  -7   2  -5   42.30   14.70 
  -8   2   5   -5.00    9.40 
  -8  -2  -5   -0.60    9.40 
  -8   2  -5   -8.70    8.80 
  -8  -2   5   -2.80   11.70 
  -9   2   5   11.40   15.60 
  -9  -2  -5   19.90   15.30 
  -9   2  -5   12.00   13.50 
  -9  -2   5   29.20   18.30 
 -10  -2  -5   73.69   26.80 
 -10   2   5   64.09   26.00 
 -10  -2   5   93.69   29.50 
 -10   2  -5   54.99   20.90 
   0  -3   5   -2.30    2.30 
   0   3  -5   -0.50    3.00 
   0   3   5    3.00    4.50 
  -1   3   5 1727.83   76.39 
  -1  -3  -5 1738.63   76.39 
   1  -3   5 1616.84   75.69 
  -1  -3   5 1642.14   77.69 
  -1   3  -5 1685.83   70.49 
  -1   3  -5 1836.82   78.29 
  -2  -3  -5  497.05   32.40 
  -2  -3  -5  514.45   34.20 
   2  -3   5  595.74   32.60 
  -2   3   5  568.64   32.00 
  -2  -3   5  605.24   35.70 
  -2   3  -5  574.94   34.00 
  -2   3  -5  597.94   30.70 
  -3  -3  -5  273.37   27.10 
  -3  -3  -5  183.98   22.30 
  -3   3   5  218.18   16.70 
  -3   3   5  200.28   23.60 
  -3   3  -5  206.68   21.00 
  -3  -3   5  198.18   23.60 
  -3  -3   5  231.38   18.70 
  -3   3  -5  184.68   21.10 
  -4   3   5  248.08   28.40 
   4  -3   5  255.57   19.50 
  -4  -3  -5  265.27   29.00 
  -4  -3  -5  283.37   30.40 
  -4   3   5  265.37   18.60 
  -4   3  -5  257.37   27.20 
  -4   3  -5  289.77   28.40 
  -4  -3   5  280.97   28.50 
  -4  -3   5  295.97   29.70 
  -5  -3  -5   58.89   14.50 
  -5   3   5   44.60   13.80 
   5  -3   5   99.59   13.80 
  -5  -3  -5   72.49   17.50 
  -5  -3   5   57.09   14.50 
  -5   3  -5   89.39   17.40 
  -5  -3   5   82.69   16.70 
  -5   3  -5  102.89   18.00 
  -6   3   5  118.09   24.40 
  -6  -3  -5  108.49   19.50 
  -6  -3  -5  132.19   23.90 
  -6  -3   5  103.89   21.00 
  -6  -3   5  114.29   21.20 
  -6   3  -5  102.49   19.90 
  -6   3  -5  155.88   26.60 
  -7   3   5  107.79   25.70 
  -7  -3  -5   79.39   21.00 
  -7  -3  -5  101.09   20.50 
  -7   3  -5  135.49   24.90 
  -7  -3   5  125.49   26.10 
  -7   3  -5  136.09   27.10 
  -8  -3  -5   34.20   16.10 
  -8   3   5   49.80   18.90 
  -8  -3   5   25.80   15.90 
  -8   3  -5   56.79   19.20 
  -9   3   5   45.80   22.40 
  -9  -3  -5  101.79   26.30 
  -9   3  -5  104.89   27.20 
  -9  -3   5  113.29   29.00 
 -10   3   5   49.00   21.60 
 -10  -3  -5   91.69   27.30 
 -10  -3   5   28.50   18.50 
 -10   3  -5  102.59   30.70 
   0   4  -5    0.40    4.30 
   0  -4  -5    0.80    3.30 
   0  -4   5   12.50    6.30 
  -1  -4  -5   14.60    6.40 
   1  -4   5    3.40    3.80 
  -1   4   5    8.80    5.20 
  -1  -4  -5    9.50    6.00 
   1   4  -5   15.20    6.90 
  -1  -4   5   17.40    4.80 
  -1  -4   5    8.40    5.60 
  -1   4  -5    9.50    6.50 
  -1   4  -5   12.30    4.00 
  -2  -4  -5  603.74   38.70 
  -2   4   5  557.54   33.20 
  -2  -4  -5  615.44   36.00 
   2  -4   5  601.24   34.10 
  -2   4  -5  593.14   30.70 
  -2  -4   5  580.94   37.30 
  -2   4  -5  565.94   35.90 
  -2  -4   5  603.84   31.10 
  -3  -4  -5  169.28   23.10 
  -3   4   5  197.38   23.20 
  -3   4   5  186.18   18.70 
  -3  -4  -5  191.18   23.10 
  -3   4  -5  194.98   19.70 
  -3   4  -5  194.68   23.20 
  -3  -4   5  179.88   23.40 
  -4  -4  -5  558.84   39.50 
  -4  -4  -5  494.65   36.40 
   4  -4   5  527.45   30.70 
  -4   4   5  563.14   30.00 
  -4   4   5  484.15   36.80 
  -4   4  -5  504.25   35.70 
  -4  -4   5  565.54   35.30 
  -4   4  -5  523.35   34.10 
  -4  -4   5  523.65   37.80 
  -5  -4  -5  195.58   27.70 
  -5   4   5  291.17   34.60 
  -5  -4  -5  213.08   28.10 
  -5  -4   5  235.58   29.40 
  -5  -4   5  212.98   27.30 
  -5   4  -5  219.68   28.70 
  -5   4  -5  267.77   30.10 
  -6   4   5  573.44   45.80 
  -6  -4  -5  613.34   44.40 
  -6  -4  -5  638.94   46.40 
  -6   4  -5  611.24   44.90 
  -6  -4   5  565.84   43.00 
  -6   4  -5  646.54   45.10 
  -6  -4   5  553.74   43.10 
  -7   4   5   19.10   12.10 
  -7  -4  -5   35.60   14.00 
  -7  -4  -5   20.10   14.70 
  -7   4  -5   31.00   15.60 
  -7   4  -5    7.70   10.50 
  -7  -4   5   20.50   14.00 
  -8  -4  -5  118.19   27.20 
  -8   4   5  121.99   28.00 
  -8   4  -5  101.99   25.90 
  -8   4  -5   84.99   23.20 
  -8  -4   5  112.59   26.30 
  -9   4   5   -1.50   14.90 
  -9  -4  -5   15.50   14.80 
  -9   4  -5   -5.50   12.00 
  -9  -4   5   -7.50   12.90 
 -10   4   5   36.90   22.30 
 -10  -4  -5   27.20   20.70 
 -10  -4   5   30.50   20.50 
 -10   4  -5   25.60   20.60 
   0  -5  -5   -2.30    3.20 
   0   5  -5    3.30    4.50 
   0  -5   5    0.00    4.40 
  -1  -5  -5  249.97   27.80 
   1   5  -5  276.97   22.40 
   1  -5   5  255.07   21.20 
  -1   5  -5  284.37   28.30 
  -1  -5   5  237.68   26.90 
  -1   5  -5  238.58   13.90 
  -1  -5   5  207.88   13.60 
   1  -5  -5  243.78   20.40 
   2  -5   5   71.29   12.90 
  -2  -5  -5  114.59   19.70 
  -2  -5  -5  111.59   16.50 
  -2   5   5   89.39   14.20 
  -2  -5   5   85.79   11.10 
  -2  -5   5  113.29   19.10 
  -2   5  -5  101.29   17.00 
  -2   5  -5   99.59   11.60 
  -3  -5  -5  303.77   33.10 
  -3  -5  -5  234.48   26.20 
  -3   5   5  283.47   20.70 
  -3   5   5  253.37   27.50 
  -3   5  -5  274.97   20.30 
  -3  -5   5  318.07   34.00 
  -3   5  -5  278.67   30.40 
  -3  -5   5  249.58   20.00 
  -4   5   5  275.27   30.80 
   4  -5   5  258.97   21.00 
  -4   5   5  316.87   21.20 
  -4  -5  -5  247.58   30.90 
  -4  -5  -5  287.67   31.90 
  -4   5  -5  288.77   32.40 
  -4   5  -5  251.97   25.90 
  -4  -5   5  275.27   32.30 
  -5   5   5  512.35   38.90 
  -5  -5  -5  477.05   37.70 
  -5  -5  -5  489.75   39.90 
  -5  -5   5  529.15   40.40 
  -5   5  -5  415.56   33.70 
  -5  -5   5  461.25   35.00 
  -5   5  -5  441.66   37.20 
  -6   5   5   42.00   16.00 
  -6  -5  -5   16.20   10.90 
  -6  -5  -5   47.80   16.20 
  -6  -5   5   17.60   11.20 
  -6   5  -5   19.20   13.10 
  -6   5  -5   12.30   10.30 
  -6  -5   5   31.40   13.80 
  -7   5   5   13.70   13.00 
  -7  -5  -5    1.10    8.90 
  -7  -5  -5    1.40    9.80 
  -7  -5   5    7.70   12.70 
  -7  -5   5    9.90   11.10 
  -7   5  -5   22.40   13.80 
  -7   5  -5    4.90   10.90 
  -8  -5  -5    7.70   14.20 
  -8   5   5   30.50   16.80 
  -8   5  -5   19.60   16.20 
  -8  -5   5    4.90   11.70 
  -8   5  -5    3.50   15.10 
  -9  -5  -5    4.00   14.50 
  -9   5   5   19.90   15.70 
  -9   5  -5   41.00   21.70 
  -9   5  -5   27.00   17.90 
  -9  -5   5   15.20   14.90 
 -10  -5  -5   61.99   26.80 
 -10   5   5   68.99   27.60 
 -10  -5   5   70.99   27.20 
 -10   5  -5  120.29   34.40 
   0  -6  -5   -2.30    4.30 
   0   6  -5    1.80    4.60 
   0  -6   5    1.00    4.40 
   1  -6   5  466.85   32.50 
  -1  -6  -5  470.25   35.10 
   1   6  -5  468.25   33.10 
  -1  -6   5  472.65   22.40 
  -1   6  -5  555.04   35.40 
   1  -6  -5  506.55   33.60 
  -1  -6   5  490.85   35.40 
  -2  -6  -5  493.05   37.40 
   2   6  -5  517.85   34.20 
  -2  -6  -5  487.05   31.90 
   2  -6   5  463.95   31.80 
  -2  -6   5  429.06   34.60 
   2   6   5  468.75   22.60 
   2  -6  -5  483.45   30.80 
  -2   6  -5  475.05   34.20 
  -2   6  -5  454.85   24.10 
  -2  -6   5  425.56   24.50 
   3  -6   5   67.59   13.70 
  -3  -6  -5   56.39   13.00 
  -3  -6  -5   77.29   18.50 
  -3   6   5   67.09   15.40 
  -3   6   5   92.59   14.40 
  -3   6  -5   61.59   14.30 
  -3  -6   5   51.29   10.60 
  -3  -6   5   42.10   13.80 
  -3   6  -5   75.29   11.90 
  -4   6   5  354.46   24.90 
  -4  -6  -5  369.76   37.30 
   4  -6   5  326.87   25.50 
  -4   6   5  382.56   31.20 
  -4  -6  -5  346.67   40.30 
  -4  -6   5  364.36   39.90 
  -4   6  -5  342.97   26.70 
  -4  -6   5  377.56   27.20 
  -4   6  -5  349.77   38.70 
  -5   6   5   31.70   13.00 
  -5  -6  -5   39.80   15.00 
  -5  -6  -5   32.70   12.90 
  -5  -6   5   24.80   10.30 
  -5   6  -5   16.70   11.10 
  -5  -6   5   29.40   13.50 
  -5   6  -5   35.00   13.20 
  -6   6   5    7.00   10.40 
  -6  -6  -5   15.40   12.10 
  -6  -6  -5    9.30   11.30 
  -6   6  -5    5.30   11.50 
  -6   6  -5   29.40   15.20 
  -6  -6   5   20.50   11.20 
  -6  -6   5   -0.40    9.30 
  -7  -6  -5  157.28   29.30 
  -7  -6  -5  144.99   27.70 
  -7   6   5  188.68   33.70 
  -7   6  -5  150.08   29.60 
  -7   6  -5  212.88   32.70 
  -7  -6   5  176.38   29.50 
  -7  -6   5  231.28   35.10 
  -8  -6  -5   11.30   13.40 
  -8   6   5   13.40   13.90 
  -8   6  -5    8.10   13.40 
  -8  -6   5   -7.20   11.40 
  -8   6  -5   16.70   17.10 
  -9   6   5  144.89   34.10 
  -9  -6  -5   58.49   23.20 
  -9   6  -5   82.89   28.80 
  -9  -6   5   83.49   25.60 
  -9   6  -5  137.49   32.00 
 -10  -6  -5   13.80   17.90 
 -10   6   5   -6.00   16.30 
 -10  -6   5   25.20   20.60 
 -10   6  -5    7.40   20.10 
   0  -7  -5    9.40    7.40 
   0  -7   5   -2.00    5.20 
   0   7  -5    0.00    5.30 
  -1  -7  -5 1398.56   75.09 
   1  -7   5 1342.07   70.79 
   1   7  -5 1373.96   70.69 
  -1   7  -5 1325.07   70.89 
   1  -7  -5 1382.26   70.59 
  -1  -7   5 1376.76   74.09 
   2  -7   5  288.27   30.00 
   2   7  -5  305.67   31.80 
  -2  -7  -5  301.07   24.60 
  -2  -7  -5  309.87   35.70 
   2  -7  -5  283.47   24.10 
  -2   7  -5  247.58   30.40 
  -2  -7   5  268.07   33.60 
  -3  -7  -5  113.09   18.30 
  -3  -7  -5   46.90   15.80 
  -3   7   5   52.79   13.40 
   3  -7   5  119.49   18.70 
  -3  -7   5   58.89   16.10 
  -3   7  -5   78.69   17.20 
   3  -7  -5  105.49   16.10 
  -4   7   5  123.99   21.10 
   4  -7   5  150.08   20.90 
  -4  -7  -5  162.28   29.30 
  -4  -7  -5  118.89   21.10 
  -4  -7   5   97.49   22.70 
  -4   7  -5  104.59   21.50 
  -5   7   5   32.20   12.90 
  -5  -7  -5   23.10   12.00 
  -5  -7  -5   37.20   15.30 
  -5   7  -5   53.49   18.20 
  -5  -7   5   29.20   14.20 
  -6   7   5   84.59   20.80 
  -6  -7  -5   74.39   20.80 
  -6  -7  -5   66.79   17.50 
  -6   7  -5   85.89   23.00 
  -6  -7   5   64.09   19.90 
  -7   7   5  118.39   26.70 
  -7  -7  -5   73.19   21.90 
  -7  -7  -5   76.09   20.70 
  -7   7  -5  160.68   31.50 
  -7  -7   5  176.28   31.80 
  -8  -7  -5   46.10   18.70 
  -8  -7  -5   34.80   18.70 
  -8   7   5   26.80   18.70 
  -8   7  -5   27.10   19.10 
  -9  -7  -5   44.00   20.70 
  -9   7   5   68.99   24.90 
  -9   7  -5   59.39   26.80 
   0  -8  -5   10.50    8.50 
   0  -8   5    1.60    4.80 
   0   8  -5   -7.10    5.40 
  -1  -8  -5   47.10   14.90 
   1   8  -5   36.80   11.90 
   1  -8   5   58.79   15.30 
   1  -8  -5   63.89   15.00 
  -1   8  -5   67.49   16.30 
   1   8   5   55.59   10.80 
  -1  -8   5   42.20   14.30 
   2  -8   5  284.97   32.20 
  -2  -8  -5  259.57   28.50 
  -2  -8  -5  206.78   31.10 
   2   8  -5  232.98   28.60 
  -2   8  -5  178.58   26.30 
   2  -8  -5  253.07   28.10 
  -2  -8   5  304.77   36.90 
  -3  -8  -5  332.07   41.10 
  -3  -8  -5  273.17   29.90 
  -3   8   5  370.86   35.50 
   3  -8   5  289.17   31.80 
  -3  -8   5  362.66   42.90 
  -3   8  -5  321.77   38.30 
   3  -8  -5  318.07   25.80 
  -4  -8  -5   56.59   15.70 
  -4  -8  -5   79.49   21.90 
  -4   8   5   75.99   18.20 
  -4  -8   5   57.09   18.50 
  -4   8  -5   82.79   19.80 
  -5  -8  -5  457.95   38.30 
  -5  -8  -5  455.25   51.89 
  -5   8   5  471.45   47.90 
  -5  -8   5  493.65   53.79 
  -5   8  -5  520.55   53.79 
  -6  -8  -5  224.78   38.40 
  -6   8   5  287.17   37.20 
  -6  -8  -5  322.37   39.10 
  -6   8  -5  303.97   42.50 
  -6  -8   5  255.07   40.30 
  -7  -8  -5  168.38   32.00 
  -7  -8  -5  131.39   27.70 
  -7   8   5  141.99   29.40 
  -7  -8   5  228.78   38.40 
  -7   8  -5  171.98   36.10 
  -8  -8  -5   35.70   16.30 
  -8  -8  -5    5.00   14.60 
  -8   8   5   19.40   19.00 
  -8   8  -5   38.20   21.20 
  -9   8   5   31.40   21.20 
  -9  -8  -5   28.90   18.20 
  -9   8  -5   13.70   21.60 
   0  -9  -5    5.60    6.70 
   0   9  -5   -1.90    5.60 
   0  -9   5    5.80    8.50 
   0   9   5   -2.90    6.40 
   1   9  -5  238.78   30.30 
  -1  -9  -5  274.47   36.00 
   1  -9   5  297.97   35.80 
  -1   9  -5  226.18   29.60 
  -1  -9   5  319.87   39.10 
   1  -9  -5  258.57   31.00 
   2  -9   5  189.08   27.10 
  -2  -9  -5  208.18   32.40 
   2   9  -5  140.39   22.60 
  -2  -9   5  194.08   31.20 
  -2   9  -5  152.68   25.50 
   2  -9  -5  191.68   25.10 
  -3  -9  -5  456.15   50.29 
  -3   9   5  401.36   33.00 
  -3  -9  -5  428.06   33.20 
   3  -9   5  414.76   34.70 
  -3  -9   5  419.86   48.30 
  -3   9  -5  418.56   45.50 
   3  -9  -5  383.06   30.90 
  -4  -9  -5   32.40   12.40 
  -4  -9  -5   70.39   20.00 
  -4   9   5   30.80   12.20 
  -4  -9   5   49.50   19.20 
  -4   9  -5   35.50   15.00 
  -5  -9  -5  147.69   30.30 
  -5   9   5  181.48   29.00 
  -5  -9  -5  159.88   26.40 
  -5   9  -5  184.78   31.30 
  -5  -9   5  168.38   32.30 
  -6   9   5   84.99   22.70 
  -6  -9  -5   95.79   22.50 
  -6  -9  -5   48.10   20.10 
  -6  -9   5  114.19   29.30 
  -6   9  -5   86.59   26.20 
  -7   9   5    8.10   14.30 
  -7  -9  -5    9.20   13.00 
  -7  -9  -5    2.60   13.90 
  -7  -9   5   15.30   17.80 
  -7   9  -5   26.60   18.80 
  -8  -9  -5   23.90   17.70 
  -8  -9  -5   -6.20   10.30 
  -8   9   5    7.70   15.70 
  -8  -9   5   12.50   17.90 
  -8   9  -5   -1.10   17.10 
  -9  -9  -5   27.70   20.60 
  -9   9   5   -2.90   17.20 
  -9   9  -5   11.90   20.50 
   0 -10   5   -5.70    8.90 
   0  10   5    2.30    6.70 
   0  10  -5    2.80    6.90 
   0 -10  -5    3.00    8.90 
   1  10  -5  279.67   34.10 
  -1  10   5  263.77   31.00 
  -1 -10  -5  276.67   36.70 
   1 -10   5  273.27   36.70 
   1 -10  -5  268.87   33.90 
  -1 -10   5  299.07   39.70 
  -1  10  -5  226.38   31.30 
   2 -10   5  133.19   24.90 
  -2 -10  -5   81.49   21.30 
   2  10  -5   94.29   18.60 
  -2  10  -5   45.60   15.60 
   2 -10  -5   68.89   16.90 
  -2 -10   5  136.09   28.00 
  -3  10   5   27.60   12.30 
  -3 -10  -5   19.60   12.60 
   3 -10   5   30.90   15.00 
  -3 -10  -5   32.60   13.10 
  -3 -10   5   14.20   12.30 
  -3  10  -5   -3.20    8.20 
  -4 -10  -5   44.90   15.10 
  -4  10   5   38.20   13.90 
  -4 -10  -5   57.99   20.40 
  -4  10  -5   33.70   15.80 
  -4 -10   5   58.19   21.00 
  -5  10   5   64.79   18.40 
  -5 -10  -5  114.49   27.00 
  -5 -10  -5   77.09   19.20 
  -5 -10   5   76.79   24.50 
  -5  10  -5   69.09   21.70 
  -6  10   5    7.00   11.50 
  -6 -10  -5   21.20   15.70 
  -6 -10  -5    8.90   13.00 
  -6 -10   5   13.10   16.10 
  -6  10  -5   15.30   15.50 
  -7 -10  -5  176.68   36.40 
  -7  10   5  257.27   40.90 
  -7 -10  -5  226.18   36.10 
  -7 -10   5  223.68   40.90 
  -7  10  -5  174.78   38.20 
  -8 -10  -5   17.70   14.50 
  -8  10   5   -2.20   14.80 
  -8 -10  -5    2.80   13.00 
  -8 -10   5    5.80   16.20 
  -8  10  -5   -3.50   17.20 
   0 -11  -5   13.30   11.30 
   0 -11   5   -4.00    8.90 
   0  11  -5    5.10    8.60 
   1 -11   5  484.75   51.99 
  -1  11   5  550.14   40.50 
  -1 -11  -5  419.26   49.50 
   1  11  -5  521.45   42.20 
  -1  11  -5  553.34   53.49 
  -1 -11   5  527.25   55.89 
   1 -11  -5  501.05   49.70 
  -2 -11  -5  199.38   33.40 
   2 -11   5  176.38   31.10 
  -2  11   5  222.78   32.30 
   2  11  -5  154.38   25.30 
   2 -11  -5  159.98   25.80 
  -2 -11   5  260.67   40.20 
  -2  11  -5  180.78   29.70 
  -3  11   5   96.59   22.70 
   3 -11   5  123.09   28.00 
  -3 -11  -5   79.59   23.70 
  -3  11  -5  113.79   24.10 
  -3 -11   5  122.09   27.90 
  -4  11   5   91.99   25.70 
  -4 -11  -5   43.80   18.80 
  -4 -11   5   77.69   25.30 
  -4  11  -5   50.89   19.70 
  -5 -11  -5    7.40   12.80 
  -5  11  -5   -1.90   11.90 
  -5 -11   5   -5.80   10.20 
  -6 -11  -5   -2.50   12.50 
  -6 -11   5   36.20   21.00 
  -6  11  -5   22.80   17.80 
  -7 -11  -5   18.40   18.20 
  -7  11  -5   31.10   20.30 
  -7 -11   5   37.50   20.60 
  -8  11  -5   -5.10   16.20 
   0 -12   5   10.20   12.60 
   0 -12  -5    1.10    9.90 
   0  12  -5   -5.30    9.00 
   1 -12   5    7.60   13.80 
   1  12  -5    1.80   10.20 
  -1 -12  -5   27.80   16.50 
   1 -12  -5   17.10   13.30 
  -1 -12   5   10.30   14.70 
  -1  12  -5   12.60   12.70 
   2 -12   5   94.39   25.50 
  -2  12   5   68.69   18.40 
   2  12  -5   57.89   17.00 
  -2 -12  -5   68.19   21.20 
  -2 -12   5   88.99   25.00 
  -2  12  -5   74.09   20.50 
   2 -12  -5   87.09   21.20 
  -3  12   5  159.88   29.80 
   3  12  -5  137.79   26.00 
  -3 -12  -5   65.79   22.00 
  -3  12  -5  149.69   30.00 
  -3 -12   5  151.18   33.10 
  -4  12   5   23.80   15.10 
  -4 -12  -5   -7.90   10.70 
  -4  12  -5    9.40   12.60 
  -4 -12   5   -3.80   11.30 
  -5 -12  -5  238.28   41.40 
  -5 -12   5  316.57   49.60 
  -5  12  -5  301.97   45.30 
  -6 -12  -5   -0.60   14.40 
  -6  12  -5   -0.80   17.40 
  -6 -12   5   -2.20   15.30 
  -7 -12  -5   63.99   25.10 
  -7 -12   5   35.50   21.80 
  -7  12  -5   92.89   31.20 
   0 -13   5   17.10   16.40 
   0 -13  -5    2.70   12.90 
   0  13  -5    3.60   10.40 
  -1 -13  -5  149.59   30.60 
   1  13  -5  181.48   30.20 
   1 -13   5  196.68   35.40 
  -1 -13   5  155.28   34.20 
  -1  13  -5  171.48   31.90 
   1 -13  -5  145.69   29.50 
  -2 -13  -5   52.29   20.30 
   2  13  -5   53.89   18.40 
  -2  13   5   33.10   15.40 
   2 -13   5   32.90   19.90 
  -2  13  -5   52.59   20.00 
  -2 -13   5   29.60   18.40 
  -3  13   5  121.99   26.20 
  -3 -13  -5  180.68   35.60 
  -3 -13   5  207.68   38.70 
  -3  13  -5  220.48   38.00 
  -4 -13  -5   -2.00   10.60 
  -4  13   5   -1.60   13.00 
  -4 -13   5  -15.60   10.30 
  -4  13  -5    0.70   12.30 
  -5  13   5   63.99   24.00 
  -5 -13  -5   33.30   17.90 
  -5  13  -5   59.49   23.00 
  -5 -13   5   54.49   23.10 
  -6  13   5   68.99   26.90 
  -6 -13  -5   68.69   26.80 
  -6  13  -5   43.10   22.20 
  -6 -13   5   65.99   26.90 
   0 -14   5    2.60   14.50 
   0 -14  -5    2.80   14.40 
   0  14  -5    4.60   12.00 
   1 -14   5  176.18   34.50 
   1  14  -5  131.19   27.10 
  -1 -14  -5   81.29   23.90 
  -1  14  -5  123.29   26.70 
   1 -14  -5   88.49   25.00 
  -1 -14   5  174.38   35.90 
   2  14  -5    7.50   13.50 
  -2 -14  -5    8.60   14.80 
   2 -14   5   20.20   20.10 
  -2  14  -5   19.40   15.10 
  -2 -14   5   15.10   17.30 
  -3  14   5    4.00   13.90 
  -3 -14  -5   -2.10   12.80 
  -3  14  -5   -1.30   12.00 
  -3 -14   5   -6.20   11.90 
  -4  14   5    6.80   14.50 
  -4 -14  -5   -4.40   12.20 
  -4 -14   5    3.70   15.30 
  -4  14  -5   -0.30   13.20 
  -5  14   5   10.70   17.70 
  -5 -14  -5   15.10   17.10 
  -5 -14   5   26.40   18.20 
  -5  14  -5   36.20   21.80 
   0 -15   5  -12.00   16.10 
   0 -15  -5   -4.30   14.30 
   0  15  -5    2.70   14.00 
  -1 -15  -5  118.49   29.80 
   1 -15   5  215.98   40.10 
   1  15  -5  153.18   31.90 
  -1 -15   5  113.99   31.60 
  -1  15  -5  162.08   34.00 
   1 -15  -5  187.58   35.70 
  -2 -15  -5   43.40   21.20 
  -2 -15   5   19.70   19.20 
  -2  15  -5   57.89   22.00 
  -3 -15  -5   19.40   16.30 
  -3  15  -5   29.30   20.40 
  -3 -15   5   37.20   23.80 
  -4  15   5    5.60   17.70 
  -4 -15  -5    4.00   14.70 
  -4  15  -5   27.20   19.50 
  -4 -15   5    1.10   17.00 
   0  16  -5    1.50   15.70 
   0 -16  -5   -0.60   16.80 
   0 -16   5    1.90   20.10 
  -1 -16  -5   15.00   17.90 
   1 -16   5    5.40   19.30 
  -1  16  -5   -3.90   14.30 
  -1 -16   5   20.30   20.80 
   0   0   6 2710.23  115.59 
  -1   0  -6   -3.00    2.30 
  -1   0   6   -0.60    3.70 
   1   0   6   -0.90    3.10 
  -2   0  -6  892.31   43.70 
  -2   0   6  815.32   43.90 
   2   0   6  747.03   43.40 
   3   0   6    0.60    4.50 
  -3   0   6    1.00    4.30 
  -3   0  -6   -0.40    3.90 
  -3   0   6    6.10    5.70 
  -3   0  -6    0.50    3.30 
  -4   0   6 1302.47   68.79 
  -4   0   6 1274.87   63.99 
  -4   0  -6 1346.87   61.19 
  -4   0  -6 1325.27   67.69 
   4   0   6 1345.77   65.59 
  -5   0  -6   -0.10    5.10 
  -5   0  -6   -8.50    5.00 
  -5   0   6   -4.20    5.10 
   5   0   6   -2.50    5.00 
  -5   0   6   -1.00    6.30 
   6   0   6  208.88   24.10 
  -6   0   6  174.08   29.10 
  -6   0  -6  193.28   29.10 
  -7   0   6    5.30    9.70 
  -7   0  -6    1.00    9.30 
  -8   0   6  527.35   57.09 
  -8   0  -6  541.65   59.09 
  -9   0  -6  -14.20   12.30 
  -9   0   6    2.00   12.70 
 -10   0  -6   68.59   26.80 
 -10   0   6   88.09   32.60 
   0  -1   6  482.05   30.40 
   0   1   6  506.65   31.20 
   1  -1   6  731.83   40.70 
  -1   1   6  690.03   39.50 
  -1  -1  -6  738.93   39.50 
  -1   1  -6  778.72   39.50 
   1   1   6  718.13   40.90 
  -1  -1   6  759.52   41.50 
  -1   1  -6  771.42   38.10 
   2  -1   6  467.55   30.40 
  -2   1   6  477.95   30.40 
  -2  -1  -6  514.75   31.00 
  -2   1  -6  514.75   29.70 
   2   1   6  449.36   30.80 
  -2   1  -6  483.35   29.20 
  -2  -1   6  536.85   32.20 
  -3   1   6  185.98   20.80 
  -3   1   6  160.48   21.00 
  -3  -1  -6  213.88   15.10 
   3  -1   6  219.18   22.40 
  -3  -1  -6  175.68   21.30 
  -3  -1   6  189.48   22.00 
  -3  -1   6  214.08   23.20 
   3   1   6  237.38   24.80 
  -3   1  -6  221.18   21.30 
  -3   1  -6  238.28   24.70 
  -4  -1  -6  296.57   30.70 
  -4  -1  -6  300.37   19.00 
  -4   1   6  274.67   21.30 
  -4   1   6  275.17   30.90 
   4  -1   6  250.97   21.10 
   4   1   6  276.77   23.20 
  -4  -1   6  204.28   25.80 
  -4  -1   6  281.97   28.10 
  -4   1  -6  217.28   25.90 
  -5   1   6   39.10   12.80 
  -5   1   6   44.20   10.70 
   5  -1   6   56.89   12.20 
  -5  -1  -6   40.70   12.40 
  -5  -1   6   34.50   12.70 
  -5   1  -6   53.39   12.10 
   5   1   6   20.70    8.70 
  -5   1  -6   41.00   13.20 
  -5  -1   6   59.39   13.50 
  -6   1   6  358.66   42.00 
  -6  -1  -6  403.66   42.00 
  -6   1  -6  363.06   29.10 
  -6   1  -6  398.36   42.90 
  -6  -1   6  353.06   40.50 
  -6  -1   6  461.95   44.00 
  -7  -1  -6  148.79   26.90 
  -7   1   6  110.89   24.90 
  -7  -1   6  166.48   30.50 
  -7   1  -6  200.18   30.80 
  -8   1   6  365.26   48.40 
  -8  -1  -6  375.86   47.80 
  -8  -1   6  340.67   46.10 
  -8   1  -6  369.16   47.70 
  -9  -1  -6    6.80   11.40 
  -9   1   6    3.40   16.00 
  -9  -1   6   16.20   15.60 
  -9   1  -6    4.50   11.40 
 -10  -1  -6   40.00   20.10 
 -10   1   6   82.79   29.20 
 -10  -1   6   44.00   22.20 
 -10   1  -6   49.60   23.00 
   0  -2   6 1647.94   75.49 
   0   2   6 1594.54   75.09 
   0   2  -6 1616.74   74.39 
  -1  -2  -6   23.30    7.10 
  -1   2   6   14.90    6.70 
   1  -2   6   33.30    8.70 
  -1   2  -6   21.40    5.90 
  -1  -2   6   33.80    8.90 
  -1   2  -6   21.70    7.20 
   1   2   6   27.20    8.60 
  -2   2   6 1413.66   65.59 
  -2  -2  -6 1298.67   66.29 
   2  -2   6 1377.06   65.79 
  -2  -2   6 1423.86   68.29 
  -2  -2   6 1521.25   65.49 
  -2   2  -6 1483.45   64.19 
  -2   2  -6 1316.77   65.39 
   2   2   6 1354.96   67.79 
   3  -2   6    4.50    4.80 
  -3  -2  -6   11.00    6.80 
  -3   2   6    6.30    5.70 
  -3   2   6   16.90    6.20 
  -3  -2   6    3.90    5.40 
  -3   2  -6   12.80    6.60 
  -3   2  -6   10.20    6.00 
  -3  -2   6   13.30    7.40 
   3   2   6    5.10    5.90 
  -4   2   6  592.74   40.90 
  -4   2   6  586.64   35.00 
  -4  -2  -6  616.04   40.60 
  -4   2  -6  625.44   37.50 
  -4   2  -6  624.64   39.30 
   4   2   6  668.03   40.60 
  -4  -2   6  619.54   39.60 
  -4  -2   6  599.44   38.90 
   5  -2   6   19.50    7.40 
  -5   2   6   28.40   11.30 
  -5  -2  -6   21.80   10.30 
  -5   2   6   17.10    7.70 
  -5  -2   6   14.40    8.90 
  -5   2  -6   19.20    8.70 
   5   2   6   19.40    9.90 
  -5   2  -6   26.50   10.70 
  -5  -2   6   31.90   12.20 
  -6   2   6  386.36   44.10 
  -6  -2  -6  344.07   39.50 
  -6  -2   6  326.27   38.60 
  -6  -2   6  395.76   32.10 
  -6   2  -6  344.87   38.60 
  -6   2  -6  395.76   31.00 
   6   2   6  339.87   34.70 
  -7   2   6   20.30   13.20 
  -7  -2  -6   22.00   13.90 
  -7   2  -6   27.30   13.40 
  -7  -2   6   32.70   14.40 
  -8  -2  -6    9.00   10.70 
  -8   2   6    5.70   12.20 
  -8   2  -6   27.00   15.00 
  -8  -2   6   15.30   13.80 
  -9   2   6    3.20   13.90 
  -9  -2  -6    4.80   13.20 
  -9  -2   6    9.60   16.20 
  -9   2  -6   -4.70   11.80 
 -10  -2  -6    7.10   15.00 
 -10   2   6   10.20   19.10 
 -10   2  -6    2.30   15.00 
 -10  -2   6    6.90   16.20 
   0   3   6  874.11   46.50 
   0   3  -6  796.72   45.30 
   0  -3   6  884.71   46.70 
   1  -3   6  163.88   19.70 
  -1   3   6  195.48   20.60 
  -1  -3  -6  150.18   18.30 
  -1  -3   6  155.48   19.80 
   1   3   6  129.09   17.90 
  -1   3  -6  160.78   12.90 
  -1   3  -6  116.69   16.50 
   2  -3   6  397.76   26.50 
  -2  -3  -6  316.87   25.30 
  -2   3   6  369.56   25.40 
   2   3   6  409.66   28.90 
  -2   3  -6  361.26   26.30 
  -2  -3   6  357.66   27.70 
  -2   3  -6  397.56   23.80 
   3  -3   6  391.46   25.90 
  -3   3   6  285.07   30.50 
  -3   3   6  353.56   24.10 
  -3  -3  -6  364.86   28.60 
  -3  -3  -6  357.86   27.20 
   3   3   6  310.87   26.80 
  -3   3  -6  354.66   26.40 
  -3  -3   6  390.66   29.30 
  -3  -3   6  354.46   25.40 
  -3   3  -6  338.47   24.40 
  -4  -3  -6  293.07   32.10 
  -4   3   6  303.07   21.60 
  -4   3   6  327.87   34.50 
  -4  -3  -6  216.78   27.40 
   4   3   6  345.67   34.30 
  -4   3  -6  264.37   28.40 
  -4  -3   6  276.07   28.90 
  -4  -3   6  273.07   29.50 
  -4   3  -6  262.37   27.40 
  -5  -3  -6   33.00   11.80 
  -5   3   6   65.19   17.20 
  -5  -3  -6   51.09   13.40 
   5  -3   6   30.90    9.40 
   5   3   6   68.99   16.10 
  -5   3  -6   44.00   13.80 
  -5  -3   6   44.00   13.20 
  -5   3  -6   53.39   13.60 
  -5  -3   6   55.89   14.90 
  -6   3   6  426.36   46.80 
  -6  -3  -6  432.26   44.90 
  -6   3  -6  469.65   36.50 
   6   3   6  438.76   35.60 
  -6  -3   6  414.16   35.40 
  -6   3  -6  404.86   42.60 
  -6  -3   6  484.75   47.40 
  -7  -3  -6  127.29   26.00 
  -7   3   6  130.99   27.10 
  -7   3  -6  146.89   27.70 
  -7   3  -6  144.29   25.30 
  -7  -3   6  101.79   23.10 
  -8  -3  -6  179.18   33.50 
  -8   3   6  269.77   43.10 
  -8   3  -6  169.98   32.20 
  -8  -3   6  235.18   39.20 
  -9  -3  -6   16.60   13.90 
  -9   3   6   16.00   16.50 
  -9  -3   6   22.80   17.30 
  -9   3  -6    9.90   14.90 
 -10   3   6   53.49   23.70 
 -10  -3  -6   46.50   20.80 
 -10  -3   6   -2.60   16.40 
 -10   3  -6   58.59   23.80 
   0   4  -6  370.66   26.30 
   0  -4   6  265.47   23.20 
   0   4   6  282.67   23.70 
  -1  -4  -6  102.49   16.90 
   1   4  -6   85.99   14.90 
   1  -4   6   72.69   13.00 
  -1   4   6   89.39   14.90 
  -1   4  -6  104.89   16.70 
  -1  -4   6   71.69   14.20 
  -2  -4  -6  732.83   43.00 
   2  -4   6  793.22   42.90 
  -2   4   6  700.83   41.20 
  -2  -4  -6  805.52   46.90 
  -2   4  -6  785.12   38.20 
  -2  -4   6  771.52   38.90 
  -2   4  -6  753.82   44.20 
  -2  -4   6  756.62   46.10 
   3  -4   6  149.88   18.30 
  -3  -4  -6  180.38   24.60 
  -3   4   6  152.98   18.60 
  -3  -4  -6  152.38   21.40 
  -3  -4   6  170.88   23.50 
  -3   4  -6  120.89   19.00 
  -3   4  -6  124.89   16.30 
  -4  -4  -6  656.23   42.70 
   4  -4   6  636.54   36.50 
  -4   4   6  647.64   43.30 
  -4   4   6  634.84   35.80 
  -4  -4  -6  627.84   43.40 
  -4   4  -6  563.14   37.80 
  -4  -4   6  624.54   39.20 
  -4   4  -6  554.64   39.80 
  -4  -4   6  718.53   45.10 
  -5   4   6   13.50   10.10 
  -5  -4  -6    7.50    8.40 
  -5  -4  -6   18.50    9.60 
  -5  -4   6    8.70    8.80 
  -5   4  -6   30.30   11.50 
  -5   4  -6    6.60    8.30 
  -5  -4   6    6.60    7.90 
  -6   4   6   19.40   12.80 
  -6  -4  -6   29.20   13.80 
  -6   4  -6   34.30   12.70 
  -6  -4   6   42.90   15.20 
  -6   4  -6   36.10   14.10 
  -6  -4   6   60.39   17.20 
  -7   4   6   59.59   20.20 
  -7  -4  -6   44.50   14.70 
  -7  -4  -6   39.90   16.70 
  -7   4  -6   56.69   18.40 
  -7   4  -6   41.90   17.20 
  -7  -4   6   49.10   16.70 
   7   4   6   56.89   18.20 
  -8   4   6  286.97   44.40 
  -8  -4  -6  256.47   38.90 
  -8   4  -6  239.58   37.10 
  -8   4  -6  348.77   46.40 
  -8  -4   6  232.88   38.80 
  -9   4   6   21.60   19.50 
  -9  -4  -6   14.10   16.00 
  -9   4  -6   46.40   20.80 
  -9  -4   6   37.00   20.30 
 -10  -4  -6   34.10   21.40 
 -10   4   6   72.89   27.60 
 -10  -4   6   50.39   26.40 
 -10   4  -6   53.89   23.20 
   0   5  -6  288.87   29.40 
   0  -5  -6  186.68   24.00 
   0  -5   6  214.88   25.40 
   1  -5   6   91.69   16.20 
   1   5  -6   86.49   15.60 
  -1   5   6   72.89   13.60 
  -1  -5  -6   65.49   14.30 
  -1   5  -6   85.19   16.10 
  -1  -5   6   63.99   14.30 
  -1  -5   6   89.69   10.20 
   2  -5   6  134.89   18.00 
  -2  -5  -6  111.29   19.70 
  -2  -5  -6  126.59   17.90 
  -2   5   6  145.29   19.00 
  -2   5  -6  122.09   13.30 
  -2   5  -6   98.29   16.80 
  -2  -5   6  132.89   14.40 
  -2  -5   6  134.59   21.00 
  -3   5   6  205.18   21.90 
  -3  -5  -6  237.18   30.80 
  -3  -5  -6  173.98   23.20 
   3  -5   6  207.88   22.50 
  -3  -5   6  204.68   27.10 
  -3  -5   6  221.68   22.10 
  -3   5  -6  223.28   21.60 
  -3   5  -6  181.78   25.10 
  -4  -5  -6  181.68   27.40 
   4  -5   6  157.58   19.50 
  -4  -5  -6  158.78   23.10 
  -4   5   6  170.08   19.20 
  -4   5   6  164.98   24.70 
  -4   5  -6  141.79   20.10 
  -4  -5   6  183.38   27.50 
  -4   5  -6  159.88   24.20 
  -5  -5  -6  432.66   44.20 
  -5  -5  -6  455.35   46.80 
  -5   5   6  470.55   38.90 
  -5   5  -6  373.76   37.60 
  -5  -5   6  437.36   34.60 
  -5   5  -6  426.76   36.10 
  -5  -5   6  550.74   41.50 
  -6  -5  -6  237.38   33.90 
  -6  -5  -6  276.47   36.40 
  -6   5   6  257.77   35.90 
  -6  -5   6  174.48   29.50 
  -6   5  -6  159.28   27.60 
  -6  -5   6  230.28   30.80 
  -6   5  -6  281.97   35.10 
  -7  -5  -6  156.08   28.10 
  -7   5   6  115.59   26.60 
  -7  -5  -6   64.49   19.10 
  -7  -5   6  184.98   30.90 
  -7   5  -6  114.59   24.00 
  -7   5  -6  158.18   28.20 
  -7  -5   6  129.69   27.20 
  -8  -5  -6  308.87   43.40 
  -8   5   6  241.08   39.80 
  -8   5  -6  187.58   34.70 
  -8  -5   6  320.47   42.30 
  -8   5  -6  221.48   37.60 
  -9  -5  -6   48.00   19.10 
  -9   5   6   45.90   20.70 
  -9  -5   6   16.10   16.70 
  -9   5  -6   36.10   22.10 
 -10  -5  -6   47.30   23.50 
 -10   5   6   21.90   23.50 
 -10   5  -6   57.59   27.10 
 -10  -5   6   38.80   23.20 
   0  -6  -6 1410.66   69.79 
   0   6  -6 1269.07   67.59 
   0  -6   6 1205.28   66.99 
   1   6  -6   16.20    8.70 
   1  -6   6   14.20    7.80 
  -1  -6  -6   14.00    8.50 
  -1   6  -6   23.10    9.50 
   1  -6  -6   24.40    9.40 
  -1  -6   6   31.30   10.70 
   2  -6   6  699.63   42.70 
  -2  -6  -6  737.83   43.70 
  -2  -6  -6  600.44   45.90 
  -2   6   6  747.33   42.90 
  -2   6  -6  721.33   34.60 
  -2  -6   6  742.53   40.00 
  -2   6  -6  698.53   45.50 
  -2  -6   6  700.13   47.00 
  -3  -6  -6    4.60    6.10 
  -3  -6  -6    4.00    7.30 
  -3   6   6   -1.20    4.70 
   3  -6   6    0.30    4.90 
  -3  -6   6    5.80    8.00 
  -3   6  -6   -1.20    4.90 
  -3  -6   6    4.20    5.50 
  -3   6  -6    4.50    7.00 
  -4   6   6  315.47   34.90 
  -4  -6  -6  232.68   33.20 
   4  -6   6  281.07   27.90 
  -4   6   6  297.97   23.10 
  -4  -6  -6  249.88   30.00 
  -4   6  -6  240.78   30.90 
  -4  -6   6  258.47   26.40 
  -4   6  -6  309.17   29.60 
  -4  -6   6  254.87   33.70 
  -5  -6  -6   81.89   21.30 
  -5  -6  -6   91.29   19.40 
  -5   6   6   97.39   21.20 
  -5  -6   6  104.69   22.50 
  -5   6  -6   57.19   15.70 
  -5   6  -6  115.99   23.80 
  -6   6   6  184.98   31.20 
  -6  -6  -6   88.09   20.90 
  -6  -6  -6  147.09   28.30 
  -6  -6   6  110.19   22.70 
  -6   6  -6  143.89   25.50 
  -6   6  -6  175.48   29.30 
  -6  -6   6  152.68   29.00 
  -7  -6  -6   42.30   17.00 
  -7   6   6   19.70   14.60 
  -7  -6  -6   58.89   19.30 
  -7   6  -6   26.10   16.30 
  -7   6  -6   50.79   18.60 
  -7  -6   6   20.80   13.90 
  -7  -6   6   29.70   16.50 
  -8  -6  -6   -8.50    8.90 
  -8   6   6   -2.30   11.20 
  -8  -6   6   -3.30   13.80 
  -8   6  -6   -6.30   13.30 
  -8   6  -6   -6.50   13.70 
  -9  -6  -6   42.50   21.80 
  -9   6   6   47.20   21.40 
  -9  -6   6   46.60   21.20 
  -9   6  -6   54.79   23.80 
  -9   6  -6   37.90   22.40 
 -10  -6  -6    3.40   15.20 
 -10   6  -6   37.60   36.00 
 -10  -6   6   10.50   18.90 
   0  -7   6  599.74   42.90 
   0   7  -6  654.33   43.50 
   0  -7  -6  710.93   45.80 
   1  -7   6  215.68   27.50 
   1   7  -6  248.28   28.80 
  -1  -7  -6  258.07   32.60 
   1  -7  -6  298.77   31.00 
  -1   7  -6  208.78   27.70 
  -1  -7   6  284.77   33.40 
  -2  -7  -6  107.89   20.80 
   2  -7   6  113.49   18.40 
   2   7  -6  114.49   20.00 
  -2  -7  -6  105.69   18.40 
  -2   7  -6  107.09   20.90 
   2  -7  -6  122.79   19.30 
  -2  -7   6   91.39   19.30 
  -3   7   6  465.55   32.50 
  -3  -7  -6  423.16   44.70 
  -3  -7  -6  460.65   34.20 
   3  -7   6  480.95   33.60 
  -3  -7   6  389.66   42.90 
  -3   7  -6  465.85   46.00 
  -4  -7  -6   47.50   15.90 
  -4  -7  -6   82.29   17.80 
  -4   7   6   93.09   20.00 
   4  -7   6  105.19   17.40 
  -4   7  -6  110.69   22.90 
  -4  -7   6   95.29   21.80 
  -5  -7  -6   13.30   10.10 
  -5  -7  -6   21.30   12.90 
  -5   7   6   56.09   17.40 
  -5   7  -6   60.09   18.90 
  -5  -7   6   46.20   18.90 
  -6  -7  -6  115.69   23.30 
  -6  -7  -6   84.59   23.30 
  -6   7   6   60.49   19.00 
  -6  -7   6  103.99   25.00 
  -6   7  -6   54.59   19.90 
  -7  -7  -6  120.19   27.40 
  -7  -7  -6   63.49   21.90 
  -7   7   6  118.39   27.30 
  -7   7  -6  138.09   30.10 
  -7  -7   6  105.39   27.10 
  -8  -7  -6   37.60   19.90 
  -8  -7  -6   58.19   21.00 
  -8   7   6   67.69   24.10 
  -8   7  -6   97.29   28.50 
  -9   7   6   15.80   19.80 
  -9  -7  -6   10.30   15.70 
  -9   7  -6    5.60   18.60 
   0  -8   6   80.59   18.30 
   0   8  -6   88.99   18.00 
   0  -8  -6  105.09   20.30 
   1   8  -6  160.88   23.90 
  -1  -8  -6  160.68   26.30 
   1  -8   6  152.58   24.90 
  -1   8  -6  121.69   21.90 
  -1  -8   6  127.69   23.20 
   1  -8  -6  137.19   21.80 
  -2  -8  -6  193.18   30.10 
   2   8  -6  199.98   28.10 
   2  -8   6  175.98   25.10 
  -2  -8   6  189.28   29.00 
   2  -8  -6  181.88   23.80 
  -2   8  -6  195.08   28.90 
  -3   8   6  274.07   28.90 
   3  -8   6  274.47   31.40 
  -3  -8  -6  224.88   34.80 
  -3  -8  -6  186.78   26.40 
  -3   8   6  242.98   30.20 
  -3   8  -6  246.78   34.00 
  -3  -8   6  231.18   35.60 
  -4  -8  -6  187.68   28.50 
  -4   8   6  214.78   29.10 
  -4  -8  -6  214.28   33.30 
  -4   8  -6  196.48   30.30 
  -4  -8   6  200.08   33.40 
  -5  -8  -6    9.50   11.90 
  -5   8   6   12.80   11.10 
  -5  -8  -6   18.50   11.60 
  -5  -8   6   12.40   12.90 
  -5   8  -6   -1.70    9.90 
  -6   8   6   22.30   14.90 
  -6  -8  -6    1.50    8.50 
  -6  -8  -6   -1.00   10.20 
  -6  -8   6   -0.10   11.80 
  -6   8  -6   21.70   14.70 
  -7  -8  -6   44.60   19.00 
  -7   8   6   83.89   24.80 
  -7  -8  -6   74.69   23.60 
  -7  -8   6   70.19   23.60 
  -7   8  -6   77.89   26.60 
  -8  -8  -6   38.20   18.30 
  -8  -8  -6   41.60   18.00 
  -8   8   6   37.40   18.50 
  -8   8  -6   22.40   21.20 
  -9  -8  -6   32.30   19.80 
  -9   8   6   49.00   25.30 
  -9   8  -6   39.20   24.80 
   0   9  -6   -1.30    6.40 
   0  -9  -6    7.20    9.50 
   0  -9   6   11.00    9.60 
   1  -9   6   31.20   14.70 
   1   9  -6   15.00   10.20 
  -1  -9  -6   27.00   12.70 
  -1  -9   6   24.60   13.30 
   1  -9  -6   23.60   11.00 
  -1   9  -6   25.00   11.50 
   2   9  -6   35.40   13.30 
   2  -9   6   37.50   14.60 
  -2  -9  -6   32.30   14.40 
  -2  -9   6   44.30   16.30 
   2  -9  -6   39.60   12.80 
  -2   9  -6   34.70   12.90 
  -3  -9  -6   44.50   16.40 
  -3  -9  -6   41.70   13.20 
   3  -9   6   33.40   12.90 
  -3   9   6   15.30   10.90 
  -3   9  -6   70.09   19.00 
  -3  -9   6   59.89   20.00 
  -4  -9  -6  122.79   27.40 
  -4  -9  -6   91.69   19.70 
  -4   9   6  118.59   22.60 
  -4  -9   6   70.49   22.00 
  -4   9  -6  122.29   26.00 
  -5  -9  -6  116.29   27.20 
  -5   9   6   61.09   17.90 
  -5  -9  -6   96.89   21.20 
  -5   9  -6   57.19   19.20 
  -5  -9   6   89.29   25.40 
  -6  -9  -6   26.30   14.50 
  -6   9   6   18.20   13.40 
  -6  -9  -6   26.50   15.70 
  -6  -9   6   33.80   17.90 
  -6   9  -6  -12.10   11.00 
  -7   9   6   67.89   22.20 
  -7  -9  -6   52.79   21.10 
  -7  -9  -6   62.29   19.90 
  -7   9  -6   49.70   20.40 
  -7  -9   6   69.59   24.90 
  -8   9   6   56.69   22.40 
  -8  -9  -6   53.89   23.60 
  -8  -9  -6   94.89   26.80 
  -8   9  -6   76.89   30.20 
  -8  -9   6  132.09   34.30 
   0 -10   6  159.18   27.70 
   0  10  -6  111.79   22.10 
   0 -10  -6   96.79   20.70 
   1 -10   6   -0.20    9.20 
   1  10  -6    2.70    7.60 
  -1 -10  -6   21.60   12.80 
  -1 -10   6   -4.30    8.90 
   1 -10  -6   11.90   10.80 
  -1  10  -6    9.20    9.80 
   2 -10   6   63.59   17.90 
  -2 -10  -6   43.70   16.90 
   2  10  -6   56.69   16.20 
   2 -10  -6   84.29   18.80 
  -2  10  -6   85.99   20.80 
  -2 -10   6   91.89   23.80 
  -3  10   6   41.20   14.50 
  -3 -10  -6    5.60    9.60 
   3 -10   6    8.30   10.90 
  -3  10  -6   16.50   10.80 
  -3 -10   6    3.60    9.10 
  -4 -10  -6   90.39   19.50 
  -4  10   6   67.29   18.50 
  -4 -10  -6   71.59   22.90 
  -4  10  -6   98.29   25.10 
  -4 -10   6   71.49   23.30 
  -5 -10  -6  101.29   26.70 
  -5  10   6   93.89   22.70 
  -5 -10  -6   75.39   18.80 
  -5  10  -6  106.09   26.80 
  -5 -10   6  189.18   36.80 
  -6 -10  -6    6.10   11.40 
  -6 -10  -6   17.80   14.00 
  -6  10   6   19.40   15.80 
  -6 -10   6    6.60   14.90 
  -6  10  -6   33.70   19.80 
  -7 -10  -6   72.19   25.10 
  -7  10   6   21.40   16.20 
  -7 -10  -6   47.50   19.60 
  -7 -10   6   44.80   24.10 
  -7  10  -6   41.60   22.90 
  -8  10   6   -3.30   17.30 
  -8 -10  -6    2.00   15.10 
  -8 -10  -6   10.50   15.70 
  -8  10  -6   -1.50   16.90 
  -8 -10   6  -14.00   17.20 
   0 -11   6  450.25   50.89 
   0  11  -6  435.66   45.90 
   0 -11  -6  428.06   47.40 
  -1  11   6  212.08   29.20 
   1 -11   6  195.28   33.10 
  -1 -11  -6  160.18   30.50 
   1  11  -6  199.28   30.00 
  -1 -11   6  265.77   39.60 
  -1  11  -6  147.89   27.80 
   1 -11  -6  207.78   31.50 
   2  11  -6    8.80   10.60 
   2 -11   6    4.60   11.80 
  -2 -11  -6   26.90   15.60 
  -2 -11   6    8.40   11.40 
  -2  11  -6    2.70    8.20 
   2 -11  -6   25.00   12.70 
  -3  11   6  244.68   32.10 
   3 -11   6  230.78   34.40 
  -3 -11  -6  216.48   37.80 
  -3 -11   6  206.98   37.60 
  -3  11  -6  224.98   34.40 
  -4 -11  -6   60.19   18.10 
  -4 -11  -6   51.19   20.90 
  -4  11   6   30.30   13.90 
  -4  11  -6   50.09   18.90 
  -4 -11   6   17.60   15.30 
  -5 -11  -6   40.80   16.40 
  -5  11   6   31.90   16.00 
  -5 -11  -6   37.80   19.50 
  -5  11  -6   75.89   24.40 
  -5 -11   6   60.59   24.30 
  -6 -11  -6   29.10   16.70 
  -6  11   6   24.90   16.20 
  -6 -11  -6   22.70   16.20 
  -6 -11   6   16.60   15.00 
  -6  11  -6   32.90   20.30 
  -7 -11  -6   23.20   18.20 
  -7  11   6   40.60   20.50 
  -7 -11  -6    6.40   15.80 
  -7 -11   6   28.40   19.40 
  -7  11  -6   30.20   20.80 
   0  12  -6    1.70   10.20 
   0 -12   6   18.00   15.00 
   0 -12  -6    1.30    9.80 
   1 -12   6   55.39   20.70 
   1  12  -6   39.20   15.00 
  -1 -12  -6   58.39   20.00 
   1 -12  -6   67.19   20.50 
  -1 -12   6   69.89   21.90 
  -1  12  -6   63.49   19.80 
   2  12  -6   24.60   13.00 
   2 -12   6    4.40   13.30 
  -2 -12  -6    1.30   11.00 
  -2  12   6   13.00   13.10 
   2 -12  -6   -2.80    9.00 
  -2  12  -6   13.80   12.50 
  -2 -12   6    7.70   13.80 
  -3 -12  -6  154.68   32.30 
  -3 -12   6  276.87   44.60 
  -3  12  -6  217.68   37.00 
  -4 -12  -6   52.79   20.30 
  -4  12  -6   24.30   15.20 
  -4 -12   6   43.50   22.20 
  -5 -12  -6   13.20   14.30 
  -5 -12   6   -8.10   14.70 
  -5  12  -6   -6.50   12.20 
  -6 -12  -6    6.30   15.60 
  -6  12  -6   -0.30   14.20 
  -6 -12   6    6.50   17.50 
  -7 -12  -6   39.90   22.60 
  -7  12  -6   35.60   25.00 
   0 -13  -6   86.09   23.50 
   0 -13   6   86.79   27.30 
   0  13  -6   71.99   21.10 
  -1 -13  -6   -0.90   12.10 
   1 -13   6    7.80   13.50 
   1  13  -6    5.70   11.10 
  -1  13  -6   14.30   13.10 
   1 -13  -6    7.70   12.70 
  -1 -13   6   34.30   19.00 
  -2 -13  -6   49.50   20.20 
   2  13  -6   36.60   17.30 
   2 -13   6   79.99   26.60 
  -2 -13   6   18.00   15.20 
  -2  13  -6   24.70   14.40 
  -3 -13  -6   33.50   19.60 
  -3  13   6   82.19   23.90 
  -3  13  -6   92.79   25.50 
  -3 -13   6   36.60   20.50 
  -4 -13  -6   47.60   21.60 
  -4  13   6   79.79   24.20 
  -4 -13   6   68.39   26.20 
  -4  13  -6   92.49   26.60 
  -5 -13  -6   18.60   16.20 
  -5  13   6   22.60   19.10 
  -5  13  -6   57.99   23.10 
  -5 -13   6    9.50   18.30 
  -6 -13  -6    1.80   14.90 
  -6  13   6    3.90   17.40 
  -6 -13   6    9.60   19.80 
  -6  13  -6    2.00   14.70 
   0 -14   6   25.00   17.00 
   0  14  -6    9.40   13.00 
   0 -14  -6    8.90   15.60 
   1  14  -6    2.10   11.80 
   1 -14   6   14.90   18.60 
  -1 -14  -6   -5.90   11.30 
  -1  14  -6    6.40   13.50 
  -1 -14   6   14.00   16.20 
   1 -14  -6    8.50   14.90 
   2 -14   6   14.20   18.30 
   2  14  -6    8.70   14.60 
  -2 -14  -6    4.00   15.60 
  -2  14  -6   -4.70   12.60 
  -2 -14   6   12.50   16.70 
  -3  14   6   -1.50   14.70 
  -3 -14  -6   13.40   16.30 
  -3  14  -6    4.70   13.70 
  -3 -14   6   -0.70   13.40 
  -4 -14  -6   -1.30   13.40 
  -4  14   6    3.80   14.30 
  -4 -14   6   -6.60   15.70 
  -4  14  -6    5.00   17.20 
  -5  14   6   87.09   27.30 
  -5 -14  -6   12.60   18.70 
  -5  14  -6   97.69   29.80 
  -5 -14   6   32.10   23.20 
   0 -15   6   99.79   29.10 
   0  15  -6   84.09   24.60 
   0 -15  -6   36.70   19.50 
  -1 -15  -6   32.40   17.90 
   1 -15   6   25.20   21.40 
   1  15  -6   15.20   15.50 
  -1 -15   6   20.60   18.10 
   1 -15  -6   14.40   16.60 
  -1  15  -6   14.40   16.70 
  -2 -15  -6    2.80   16.40 
  -2  15  -6   16.10   16.80 
  -2 -15   6   37.30   22.40 
  -3 -15  -6   67.59   26.00 
  -3 -15   6   38.40   24.80 
  -3  15  -6   14.60   18.30 
   0   0   7   -1.30    4.60 
  -1   0  -7   -0.20    3.90 
   1   0   7    3.50    4.40 
  -1   0   7   -1.60    3.50 
  -2   0  -7  775.72   42.70 
   2   0   7  841.52   45.50 
  -2   0   7  702.43   43.00 
  -3   0   7    2.90    5.20 
  -3   0   7   -2.30    4.80 
  -3   0  -7    4.00    4.10 
   3   0   7    3.30    4.30 
  -3   0  -7    1.60    4.90 
  -4   0  -7 1260.27   60.49 
  -4   0   7 1236.78   68.19 
  -4   0   7 1227.18   64.29 
  -4   0  -7 1250.17   67.09 
   4   0   7 1423.06   67.79 
   5   0   7    2.70    6.40 
  -5   0  -7    2.80    5.40 
  -5   0  -7    9.70    7.90 
  -5   0   7    3.70    7.60 
  -5   0   7    2.20    6.90 
   6   0   7   43.60   13.20 
  -6   0  -7   47.50   15.90 
  -6   0   7   19.60   12.20 
  -7   0   7   12.00   13.50 
  -7   0  -7   -5.90    8.90 
  -8   0   7    3.30   11.80 
  -8   0  -7   10.10   15.60 
  -9   0   7   -6.50   14.30 
  -9   0  -7    1.10   11.90 
 -10   0  -7   70.09   26.20 
 -10   0   7   72.99   29.60 
   0  -1   7    3.10    4.40 
   0   1   7    0.10    4.10 
  -1  -1  -7  333.47   24.70 
  -1   1   7  348.47   26.00 
   1  -1   7  364.96   26.80 
   1   1   7  296.77   24.90 
  -1   1  -7  342.37   24.30 
  -1  -1   7  362.56   26.70 
  -1   1  -7  340.57   23.60 
   2  -1   7   94.59   15.80 
  -2   1   7   65.59   12.60 
  -2  -1  -7   58.49   12.80 
  -2   1  -7   84.79   13.80 
   2   1   7   91.39   16.30 
  -2  -1   7   71.29   13.50 
  -2   1  -7   96.19   14.40 
  -3   1   7   60.49   13.80 
  -3  -1  -7   61.79    9.90 
  -3  -1  -7   33.60    9.90 
   3  -1   7   55.49   12.30 
  -3   1   7   33.20    9.70 
  -3  -1   7   60.29   13.50 
  -3  -1   7   43.50   11.00 
   3   1   7   79.79   15.10 
  -3   1  -7   22.20    8.00 
  -3   1  -7   46.60   11.10 
  -4   1   7  503.75   36.70 
   4  -1   7  489.15   32.80 
  -4  -1  -7  475.65   27.70 
  -4  -1  -7  475.45   35.10 
  -4   1   7  506.45   32.60 
  -4   1  -7  495.15   34.60 
  -4  -1   7  454.45   35.00 
  -4  -1   7  488.25   34.00 
   4   1   7  451.65   33.90 
  -5   1   7  193.08   28.50 
  -5  -1  -7  249.08   31.90 
  -5   1   7  226.88   24.80 
  -5   1  -7  252.27   30.80 
  -5   1  -7  251.07   25.70 
   5   1   7  221.88   27.70 
  -5  -1   7  192.68   28.10 
  -5  -1   7  223.08   27.40 
  -6   1   7   96.29   23.40 
  -6  -1  -7  112.89   23.50 
   6   1   7  114.59   20.30 
  -6  -1   7   87.09   27.60 
  -6   1  -7  148.89   26.00 
  -6  -1   7   87.59   20.90 
  -7  -1  -7    5.40   10.90 
  -7   1   7    6.00   12.60 
  -7   1  -7    9.00   11.10 
  -7  -1   7    4.80   10.60 
  -8   1   7   64.19   22.10 
  -8  -1  -7   88.59   24.90 
  -8  -1   7  102.29   26.50 
  -8   1  -7   80.69   22.10 
  -9  -1  -7   76.59   24.90 
  -9   1   7   97.39   27.70 
  -9  -1   7  114.29   31.00 
  -9   1  -7  106.59   28.80 
 -10   1   7   48.20   23.80 
 -10  -1  -7   45.60   23.20 
 -10  -1   7   57.99   26.70 
 -10   1  -7   39.60   21.30 
   0   2   7    1.60    5.00 
   0  -2   7    4.40    4.80 
   1  -2   7   54.39   12.10 
  -1   2   7   27.90    9.10 
   1   2   7   20.80    8.40 
  -1  -2   7   27.40    9.10 
  -1   2  -7   24.70    7.90 
  -2  -2  -7   89.19   15.10 
   2  -2   7  106.69   16.70 
  -2   2   7  108.19   16.00 
   2   2   7   86.39   15.50 
  -2   2  -7   88.09   13.00 
  -2   2  -7   87.19   14.50 
  -2  -2   7   95.09   16.00 
   3  -2   7  100.39   15.30 
  -3  -2  -7   69.79   14.70 
  -3   2   7   59.69   12.20 
  -3   2  -7   72.89   13.00 
  -3  -2   7   81.09   14.10 
  -3  -2   7  102.79   17.60 
  -3   2  -7   66.69   13.70 
   3   2   7   92.39   16.30 
   4  -2   7  210.98   23.80 
  -4  -2  -7  137.69   21.30 
  -4   2   7  206.98   22.80 
  -4   2   7  176.98   24.70 
   4   2   7  226.88   27.20 
  -4   2  -7  188.68   24.00 
  -4  -2   7  220.58   26.90 
  -4   2  -7  211.68   23.90 
  -4  -2   7  216.78   26.50 
  -5  -2  -7   82.79   18.70 
   5  -2   7   45.50   11.70 
  -5   2   7   59.19   12.80 
  -5   2   7   31.60   12.40 
  -5   2  -7   73.89   14.90 
  -5  -2   7   68.89   15.70 
   5   2   7   63.39   15.00 
  -5   2  -7  106.29   19.80 
  -5  -2   7   59.99   15.80 
  -6   2   7  757.42   53.19 
  -6  -2  -7  677.43   48.80 
  -6  -2   7  698.23   50.29 
  -6   2  -7  698.93   49.30 
  -6  -2   7  763.02   48.40 
  -6   2  -7  511.95   40.70 
   6   2   7  678.53   45.30 
  -7  -2  -7   25.80   12.20 
  -7   2   7   29.50   15.80 
  -7  -2   7   49.80   18.90 
  -7   2  -7   39.60   14.90 
  -8  -2  -7  188.68   33.80 
  -8   2   7   94.79   27.30 
  -8   2  -7  169.98   31.40 
  -8  -2   7  213.98   36.70 
  -9  -2  -7   -3.90   12.30 
  -9   2   7   17.60   19.00 
  -9   2  -7   -5.70   10.00 
  -9  -2   7   15.40   15.50 
 -10  -2  -7   40.30   21.70 
 -10   2   7    1.40   19.00 
 -10   2  -7   46.50   24.10 
 -10  -2   7   29.50   22.70 
   0  -3   7    2.70    4.30 
   0   3   7    1.60    4.60 
   0   3  -7    0.50    4.80 
  -1   3   7   59.99   12.70 
   1  -3   7   75.49   14.20 
  -1  -3   7   73.99   14.60 
  -1   3  -7   75.19   14.50 
   1   3   7   80.19   14.60 
  -2  -3  -7  158.38   20.70 
  -2   3   7  183.78   21.50 
   2  -3   7  234.28   24.60 
  -2   3  -7  213.08   20.50 
  -2  -3   7  181.68   23.80 
   2   3   7  151.68   21.50 
  -2   3  -7  199.98   23.80 
  -2  -3   7  136.39   17.40 
   3  -3   7  420.86   29.00 
  -3   3   7  367.76   27.30 
  -3  -3  -7  386.86   30.00 
  -3   3  -7  441.66   28.30 
  -3  -3   7  383.46   27.90 
   3   3   7  348.47   29.90 
  -3   3  -7  424.16   30.30 
  -3  -3   7  409.56   32.10 
   4  -3   7  151.68   20.50 
  -4   3   7  143.89   22.90 
  -4   3   7  140.79   18.30 
  -4  -3  -7  135.79   20.80 
  -4   3  -7  181.88   22.80 
  -4  -3   7  162.28   22.80 
  -4  -3   7  144.39   22.80 
   4   3   7  146.29   23.20 
  -4   3  -7  201.38   25.10 
  -5  -3  -7  389.16   41.70 
   5  -3   7  356.66   27.70 
  -5   3   7  380.66   41.70 
  -5   3  -7  377.16   31.30 
   5   3   7  389.96   33.00 
  -5  -3   7  389.36   39.40 
  -5   3  -7  410.36   33.00 
  -5  -3   7  407.86   33.60 
  -6   3   7  194.18   31.20 
  -6  -3  -7  127.49   23.50 
  -6  -3   7  140.99   24.70 
  -6  -3   7  120.69   24.60 
  -6   3  -7  162.78   26.70 
   6   3   7  197.78   28.90 
  -6   3  -7  191.18   26.50 
  -7  -3  -7   13.10   12.00 
  -7   3   7    8.60   13.90 
  -7  -3   7   26.20   13.80 
  -7   3  -7   15.00   12.10 
  -7   3  -7    5.90   10.40 
   7   3   7    7.90   12.50 
  -8  -3  -7   28.10   15.00 
  -8   3   7   25.20   16.70 
  -8   3  -7   38.30   18.00 
  -8  -3   7   19.80   16.70 
  -9  -3  -7   45.60   21.10 
  -9   3   7   50.59   21.70 
  -9   3  -7   61.89   24.60 
  -9  -3   7   44.40   22.90 
 -10   3   7   55.89   27.10 
 -10  -3  -7   99.89   32.50 
 -10   3  -7   70.19   24.30 
 -10  -3   7   40.60   24.30 
   0   4   7   -2.10    4.00 
   0   4  -7   -5.10    3.30 
   0  -4   7   -1.10    4.20 
   1  -4   7  301.47   24.50 
  -1   4   7  303.47   29.70 
  -1   4  -7  251.27   27.40 
  -1  -4   7  320.07   31.90 
   1   4   7  290.77   30.60 
   2  -4   7  970.10   52.69 
  -2   4   7  928.01   52.09 
  -2  -4  -7  978.30   53.99 
  -2  -4   7 1032.30   49.00 
  -2  -4   7  989.30   56.69 
  -2   4  -7 1025.00   48.30 
  -2   4  -7 1007.70   55.19 
   2   4   7  911.81   55.29 
  -3   4   7   65.99   12.60 
  -3  -4  -7   40.10   13.10 
  -3  -4  -7   46.60   12.80 
   3  -4   7   66.29   13.00 
  -3   4  -7   46.40   13.20 
  -3   4  -7   55.99   11.70 
   3   4   7   36.00   13.30 
  -3  -4   7   46.00   12.80 
  -4  -4  -7  456.35   34.50 
  -4  -4  -7  415.36   41.90 
   4  -4   7  370.26   28.30 
  -4   4   7  423.86   41.80 
  -4   4   7  422.66   29.50 
   4   4   7  405.86   41.00 
  -4  -4   7  423.26   31.50 
  -4   4  -7  430.66   33.40 
  -4   4  -7  414.26   30.50 
  -4  -4   7  439.56   35.40 
  -5  -4  -7   65.59   16.70 
   5  -4   7   59.29   13.60 
  -5   4   7   88.09   20.40 
  -5  -4  -7   70.09   17.40 
  -5   4  -7   89.39   18.40 
   5   4   7   66.89   17.10 
  -5  -4   7   73.89   17.20 
  -5   4  -7   45.70   14.30 
  -5  -4   7   65.89   17.70 
  -6  -4  -7   48.10   17.50 
  -6   4   7   12.80   11.50 
  -6   4  -7   43.10   15.60 
  -6  -4   7   19.00   11.90 
  -6  -4   7   23.00   13.80 
  -6   4  -7   30.00   13.80 
   6   4   7   12.80   12.10 
  -7   4   7   66.09   22.70 
  -7  -4  -7   71.29   21.30 
  -7   4  -7   64.49   19.90 
   7   4   7   53.89   19.40 
  -7  -4   7   52.89   17.80 
  -7   4  -7   76.89   20.30 
  -8   4   7   -0.90   10.20 
  -8  -4  -7    0.60   10.20 
  -8  -4   7   -4.40   13.70 
  -8   4  -7    6.40   13.80 
  -9  -4  -7   60.99   22.40 
  -9   4   7   26.30   17.40 
  -9  -4   7   57.89   22.30 
  -9   4  -7   51.39   23.40 
 -10  -4  -7   57.99   22.80 
 -10   4   7   63.99   28.40 
 -10  -4   7   40.40   24.70 
 -10   4  -7   49.20   25.20 
   0  -5   7   -3.90    4.70 
   0   5  -7    0.40    5.10 
   0   5   7   -1.50    4.30 
   1   5  -7  704.93   45.00 
   1  -5   7  814.42   45.90 
  -1   5   7  738.23   44.60 
  -1  -5  -7  718.03   46.40 
   1   5   7  645.84   44.70 
  -1  -5   7  747.43   46.50 
  -1  -5   7  768.02   36.10 
  -1   5  -7  629.04   43.30 
   2  -5   7  119.09   18.70 
  -2   5   7  186.68   21.90 
  -2  -5  -7  206.48   24.50 
  -2  -5  -7  160.98   23.60 
  -2  -5   7  175.98   25.00 
  -2  -5   7  185.48   19.10 
  -2   5  -7  208.38   26.80 
  -2   5  -7  191.68   15.40 
   3  -5   7   16.70    7.70 
  -3  -5  -7   24.80    9.60 
  -3  -5  -7   21.40   10.50 
  -3   5   7   25.40    9.00 
  -3  -5   7   47.70   13.40 
  -3  -5   7   31.30   10.00 
  -3   5  -7   40.90   10.00 
  -3   5  -7   19.30    8.70 
  -4  -5  -7  247.98   31.20 
  -4  -5  -7  236.58   32.20 
  -4   5   7  278.47   32.80 
  -4   5   7  169.88   20.60 
  -4   5  -7  230.48   29.80 
  -4  -5   7  208.48   29.80 
  -4   5  -7  219.98   25.00 
  -5  -5  -7   43.10   15.00 
  -5  -5  -7   43.90   14.30 
  -5   5   7   44.00   15.40 
  -5   5  -7   55.09   15.30 
  -5   5  -7   38.10   14.60 
  -5  -5   7   63.09   17.20 
  -5  -5   7   79.19   17.60 
  -6  -5  -7   89.49   20.90 
  -6  -5  -7   79.69   20.40 
  -6   5   7   79.89   22.50 
  -6   5  -7  103.69   21.80 
  -6  -5   7   96.29   22.60 
  -6  -5   7  103.59   22.70 
  -6   5  -7  132.59   25.90 
  -7  -5  -7   40.30   16.40 
  -7  -5  -7   42.10   16.00 
  -7   5   7   61.29   20.60 
  -7  -5   7   42.90   19.90 
  -7  -5   7   55.19   19.40 
  -7   5  -7   62.39   19.20 
   7   5   7   39.90   17.90 
  -7   5  -7   52.89   20.00 
  -8  -5  -7   45.10   18.70 
  -8   5   7   83.39   23.90 
  -8   5  -7   42.20   19.80 
  -8  -5   7   25.50   16.20 
  -8   5  -7   23.50   17.90 
  -9   5   7   67.19   26.10 
  -9  -5  -7  116.89   30.20 
  -9   5  -7   48.40   23.90 
  -9  -5   7   47.90   20.90 
 -10  -5  -7   35.60   24.20 
 -10   5  -7    9.20   21.00 
 -10  -5   7   29.70   23.50 
   0  -6   7   -1.40    4.20 
   0  -6  -7    2.70    6.40 
   0   6  -7   -0.50    4.80 
   1  -6   7   80.89   16.10 
  -1   6   7   81.29   16.40 
  -1  -6  -7   52.39   14.00 
   1   6  -7   66.99   16.10 
  -1  -6   7   78.69   17.00 
  -1   6  -7   54.99   14.90 
  -2   6   7  155.38   21.10 
   2  -6   7  183.58   23.90 
  -2  -6  -7  175.18   26.70 
  -2  -6  -7  178.18   23.70 
  -2   6  -7  136.59   22.00 
  -2  -6   7  136.89   23.00 
  -3   6   7  340.37   27.50 
   3  -6   7  333.97   33.00 
  -3  -6  -7  329.57   35.00 
  -3  -6  -7  330.97   39.00 
  -3  -6   7  318.77   36.80 
  -3   6  -7  378.66   36.80 
  -3   6  -7  340.87   37.70 
  -4   6   7   64.89   14.30 
  -4  -6  -7   70.49   16.50 
  -4  -6  -7   46.90   16.00 
  -4   6   7   52.89   16.20 
  -4   6  -7   72.09   14.20 
  -4   6  -7   85.59   19.30 
  -4  -6   7   71.29   18.40 
  -5   6   7  267.27   35.50 
  -5  -6  -7  310.17   36.20 
  -5  -6  -7  226.68   33.70 
  -5  -6   7  332.97   41.20 
  -5   6  -7  311.47   33.00 
  -5   6  -7  319.37   38.90 
  -6   6   7  300.67   40.30 
  -6  -6  -7  199.98   31.20 
  -6  -6  -7  259.77   37.80 
  -6  -6   7  240.48   32.70 
  -6  -6   7  324.27   42.00 
  -6   6  -7  268.07   37.30 
  -6   6  -7  245.98   32.80 
  -7   6   7   50.49   18.80 
  -7  -6  -7   61.79   20.00 
  -7  -6  -7   67.69   19.70 
  -7   6  -7   67.89   21.80 
  -7  -6   7   96.39   24.90 
  -7  -6   7   68.99   21.00 
  -7   6  -7   98.19   26.00 
  -8   6   7   76.49   26.00 
  -8  -6  -7   48.20   20.60 
  -8   6  -7   77.19   24.90 
  -8  -6   7   36.70   20.60 
  -9  -6  -7    2.70   15.10 
  -9   6   7   -5.20   18.20 
   0   7  -7   -3.70    6.00 
   0  -7   7    0.90    5.30 
   0  -7  -7    4.20    5.90 
   1   7  -7  115.69   20.60 
   1  -7   7   93.29   18.30 
  -1  -7  -7   83.59   18.70 
   1  -7  -7   97.29   18.30 
  -1  -7   7   96.19   19.90 
  -1   7  -7   70.99   17.00 
   2  -7   7   62.09   14.60 
  -2  -7  -7   46.10   14.60 
  -2   7   7   78.89   16.00 
  -2   7  -7   52.89   15.40 
  -2  -7   7   71.59   18.20 
  -3  -7  -7  418.76   41.10 
  -3   7   7  410.86   31.70 
   3  -7   7  455.25   34.20 
  -3  -7  -7  409.16   45.50 
  -3  -7   7  471.05   47.80 
  -3   7  -7  349.27   40.20 
  -4  -7  -7   68.79   19.90 
  -4   7   7  139.39   24.50 
  -4  -7  -7  111.29   22.30 
  -4  -7   7  106.19   23.50 
  -4   7  -7   72.69   18.50 
  -5  -7  -7  374.06   47.60 
  -5   7   7  448.36   46.40 
  -5  -7  -7  417.56   43.90 
  -5  -7   7  445.56   50.19 
  -5   7  -7  376.86   43.90 
  -6  -7  -7   80.19   21.40 
  -6  -7  -7   71.99   22.50 
  -6   7   7   89.69   23.80 
  -6   7  -7   92.09   25.00 
  -6  -7   7   75.29   22.30 
  -7  -7  -7   55.29   20.10 
  -7  -7  -7   31.60   16.70 
  -7   7   7   40.80   20.60 
  -7   7  -7   42.80   20.10 
  -7  -7   7   20.90   17.40 
  -8  -7  -7    1.50   13.80 
  -8   7   7   11.70   14.20 
  -8  -7  -7    6.30   14.20 
  -8   7  -7    0.00   15.50 
  -9   7   7    6.20   18.10 
  -9  -7  -7   15.40   16.40 
  -9   7  -7    5.10   20.60 
   0  -8  -7    2.40    6.40 
   0   8  -7    1.10    7.70 
   0  -8   7    0.20    6.30 
   1  -8   7  318.77   37.70 
   1   8  -7  418.86   34.20 
  -1  -8  -7  355.26   40.70 
   1  -8  -7  387.96   39.20 
  -1  -8   7  285.37   36.90 
  -1   8  -7  392.66   41.10 
  -2   8   7  590.64   41.10 
   2  -8   7  530.25   40.30 
   2   8  -7  605.44   43.40 
  -2  -8  -7  587.04   47.20 
  -2  -8   7  480.05   50.89 
   2  -8  -7  581.34   40.60 
  -2   8  -7  500.45   41.30 
   3  -8   7   18.50    9.90 
  -3   8   7   44.10   13.60 
  -3  -8  -7   33.10   12.80 
  -3  -8  -7   29.50   13.90 
  -3   8  -7   23.50   13.00 
  -3  -8   7   63.29   18.10 
  -4  -8  -7  103.89   24.40 
  -4  -8  -7  102.09   20.70 
  -4   8   7  129.59   24.30 
  -4  -8   7   91.79   22.70 
  -4   8  -7  139.09   27.10 
  -5  -8  -7    7.60   11.30 
  -5   8   7   15.30   13.10 
  -5  -8  -7   31.90   14.40 
  -5   8  -7    6.20   10.10 
  -5  -8   7   13.20   12.90 
  -6  -8  -7   30.50   14.60 
  -6  -8  -7   41.70   18.10 
  -6   8   7   27.70   15.90 
  -6   8  -7   37.90   18.60 
  -6  -8   7   41.60   18.90 
  -7  -8  -7  129.39   28.90 
  -7  -8  -7  187.68   34.80 
  -7   8   7  140.59   31.50 
  -7  -8   7  162.28   35.40 
  -7   8  -7  247.38   41.20 
  -8  -8  -7   18.10   15.30 
  -8  -8  -7   13.40   16.20 
  -8   8   7   -0.80   12.60 
  -8   8  -7   -5.30   16.80 
  -9  -8  -7   63.39   23.30 
  -9   8   7   73.09   28.90 
  -9   8  -7   42.50   26.60 
   0  -9  -7   -1.00    9.20 
   0  -9   7    0.40    8.80 
   0   9  -7   10.00    8.20 
   1   9  -7  652.23   47.80 
  -1  -9  -7  737.73   53.89 
   1  -9   7  643.24   48.40 
  -1   9  -7  634.64   48.50 
   1  -9  -7  803.02   50.99 
  -1  -9   7  669.03   51.49 
  -2  -9  -7  198.48   32.50 
   2   9  -7  233.58   32.30 
   2  -9   7  204.68   30.00 
  -2   9  -7  243.88   33.50 
  -2  -9   7  252.67   36.80 
   2  -9  -7  288.07   32.60 
  -3  -9  -7   76.69   21.50 
  -3   9   7  124.39   21.70 
  -3  -9  -7  117.69   22.70 
   3  -9   7  132.09   24.30 
  -3   9  -7  113.69   24.90 
  -3  -9   7  117.59   26.50 
  -4  -9  -7   69.29   22.20 
  -4  -9  -7   49.30   17.00 
  -4   9   7   29.10   13.20 
  -4  -9   7   69.09   23.00 
  -4   9  -7   21.10   13.00 
  -5   9   7   74.09   21.00 
  -5  -9  -7   84.89   24.60 
  -5  -9  -7   67.49   19.80 
  -5  -9   7   79.39   25.00 
  -5   9  -7   44.90   17.30 
  -6  -9  -7    6.40   12.50 
  -6   9   7   14.70   15.20 
  -6  -9  -7   14.80   14.80 
  -6  -9   7   13.60   16.50 
  -6   9  -7   10.30   13.40 
  -7  -9  -7   30.40   17.50 
  -7  -9  -7   31.90   16.00 
  -7   9   7   46.70   21.30 
  -7   9  -7   30.80   20.40 
  -7  -9   7   47.30   21.50 
  -8  -9  -7   25.60   19.40 
  -8   9   7    5.00   17.00 
  -8  -9  -7   -3.30   12.50 
  -8   9  -7    9.00   18.20 
  -8  -9   7    4.00   23.90 
   0 -10   7    6.00    9.90 
   0 -10  -7   -5.00    7.40 
   0  10  -7    6.10    9.80 
   1 -10   7  221.28   33.20 
  -1 -10  -7  158.78   29.10 
   1  10  -7  230.88   32.20 
  -1  10  -7  209.68   31.90 
  -1 -10   7  190.58   32.20 
   1 -10  -7  208.78   30.60 
   2 -10   7    4.20   10.50 
   2  10  -7   -5.70    8.20 
  -2 -10  -7    3.40   10.30 
   2 -10  -7   -2.10    9.00 
  -2 -10   7   10.10   11.90 
  -2  10  -7    9.00   11.30 
  -3  10   7  169.58   27.40 
   3 -10   7  279.77   36.60 
  -3  10   7  334.37   48.30 
  -3 -10  -7  183.98   33.50 
  -3 -10   7  175.38   34.40 
  -3  10  -7  179.68   32.90 
  -4 -10  -7   13.40   11.40 
  -4 -10  -7    0.90   10.00 
  -4  10   7    6.60   10.60 
  -4 -10   7    5.60   13.30 
  -4  10  -7   10.40   11.40 
  -5  10   7  346.57   42.50 
  -5 -10  -7  318.87   39.20 
  -5 -10  -7  310.27   47.30 
  -5  10  -7  351.96   46.60 
  -5 -10   7  338.87   49.50 
  -6 -10  -7   53.49   18.50 
  -6  10   7   51.29   20.20 
  -6 -10  -7   45.20   22.20 
  -6  10  -7   44.20   18.90 
  -6 -10   7   77.99   25.80 
  -7 -10  -7    5.70   14.70 
  -7  10   7   20.90   17.30 
  -7 -10  -7   27.40   16.40 
  -7  10  -7   63.59   26.50 
  -7 -10   7   15.10   18.40 
  -8 -10  -7   -2.50   15.80 
  -8  10   7   17.70   18.00 
  -8 -10  -7    7.70   15.50 
  -8 -10   7   25.20   23.70 
  -8  10  -7    6.90   17.00 
   0 -11  -7   17.90   11.70 
   0  11  -7    0.20    9.40 
   0 -11   7   -6.10    6.50 
  -1 -11  -7  214.68   35.30 
   1  11  -7  132.39   25.20 
   1 -11   7  189.18   32.00 
  -1 -11   7  132.99   29.00 
   1 -11  -7  164.78   29.30 
  -1  11  -7  151.48   28.40 
   2 -11   7   44.30   16.40 
  -2 -11  -7   66.49   20.40 
   2  11  -7   29.80   13.80 
  -2 -11   7   49.10   19.70 
  -2  11  -7   47.20   17.80 
   2 -11  -7   64.39   18.30 
   3 -11   7  201.68   31.40 
  -3  11   7  109.39   22.00 
  -3 -11  -7   78.79   23.10 
  -3 -11   7  116.29   29.10 
  -3  11  -7  178.68   31.10 
  -4 -11  -7   48.70   18.30 
  -4 -11  -7   14.60   12.10 
  -4  11   7   30.10   15.20 
  -4  11  -7   39.00   19.20 
  -4 -11   7   36.30   20.30 
  -5  11   7   89.69   22.30 
  -5 -11  -7   92.69   26.60 
  -5 -11  -7  129.19   26.60 
  -5 -11   7  150.38   35.90 
  -5  11  -7  129.19   31.20 
  -6 -11  -7  109.19   26.50 
  -6 -11  -7   62.79   23.60 
  -6  11   7   90.19   25.40 
  -6 -11   7   55.39   22.70 
  -6  11  -7   74.49   25.70 
  -7 -11  -7   36.10   19.10 
  -7 -11  -7   32.50   22.20 
  -7  11   7   68.39   23.50 
  -7 -11   7   45.50   24.30 
  -7  11  -7   53.49   25.80 
   0 -12  -7   -1.30    9.80 
   0 -12   7    6.40   11.90 
   0  12  -7   -3.40    8.60 
   1 -12   7  259.17   40.40 
   1  12  -7  221.68   34.00 
  -1 -12  -7  243.48   38.80 
   1 -12  -7  221.88   34.80 
  -1 -12   7  228.38   39.30 
  -1  12  -7  219.98   35.50 
   2  12  -7   33.30   16.00 
  -2 -12  -7   13.70   13.30 
   2 -12   7   14.20   14.70 
   2 -12  -7   37.30   16.70 
  -2 -12   7   35.40   20.30 
  -2  12  -7   21.80   13.50 
  -3 -12  -7    3.60   13.10 
  -3  12  -7   20.20   14.30 
  -3 -12   7   14.80   16.40 
  -4 -12  -7   12.60   14.40 
  -4  12  -7   16.30   15.20 
  -4 -12   7   13.60   15.60 
  -5 -12  -7   15.20   14.50 
  -5 -12   7   18.50   18.50 
  -5  12  -7    6.80   12.50 
  -6 -12  -7   48.60   23.00 
  -6  12  -7   10.80   18.20 
  -6 -12   7   10.80   19.60 
   0  13  -7   -1.70   10.90 
   0 -13   7   -6.20   13.40 
   0 -13  -7    0.70   12.30 
  -1 -13  -7  157.88   31.90 
   1  13  -7  281.27   39.10 
   1 -13   7  243.78   39.60 
  -1  13  -7  210.58   35.90 
  -1 -13   7  308.07   47.00 
   1 -13  -7  229.28   36.30 
  -2 -13  -7   95.29   27.20 
   2  13  -7   80.79   22.60 
   2 -13   7   74.89   24.00 
  -2 -13   7  101.19   30.10 
  -2  13  -7  126.59   29.30 
  -3  13   7   26.80   18.10 
  -3 -13  -7   26.60   17.00 
  -3 -13   7   47.50   22.70 
  -3  13  -7   18.10   14.40 
  -4 -13  -7   41.10   21.10 
  -4  13  -7   21.20   15.70 
  -4 -13   7   15.70   17.40 
  -5 -13  -7  -12.20   10.80 
  -5 -13   7   49.30   26.20 
  -5  13  -7   29.40   21.00 
   0  14  -7    6.70   14.10 
   0 -14  -7   -6.50   13.30 
   0 -14   7    3.70   16.20 
   1 -14   7   24.60   21.20 
  -1 -14  -7   42.40   20.90 
   1  14  -7   47.90   19.70 
   1 -14  -7   10.70   16.60 
  -1  14  -7  104.19   26.00 
  -1 -14   7   65.69   24.30 
   2  14  -7    7.30   14.70 
  -2 -14  -7    3.80   13.70 
   2 -14   7    5.80   19.30 
  -2  14  -7    4.10   12.70 
  -2 -14   7    2.30   16.60 
  -3 -14  -7   42.70   21.30 
  -3 -14   7   85.49   29.50 
  -3  14  -7   56.29   23.00 
  -4  14   7   -5.20   15.00 
  -4 -14  -7   12.00   16.10 
  -4 -14   7    0.20   15.90 
  -4  14  -7   20.30   17.20 
   0 -15  -7    8.30   14.70 
   0  15  -7   -0.60   13.00 
   0 -15   7   -8.40   13.90 
   1 -15   7   33.30   22.00 
  -1 -15  -7   57.59   22.20 
   1  15  -7   29.10   17.80 
   1 -15  -7   54.39   21.80 
  -1  15  -7   67.19   24.30 
  -1 -15   7   42.60   22.80 
  -2 -15  -7   27.90   21.50 
   2  15  -7   59.79   23.10 
  -2  15  -7   44.60   21.20 
  -2 -15   7   45.20   22.80 
   0   0   8 3225.48  140.39 
   1   0   8    0.20    4.20 
  -1   0   8   -1.10    3.80 
  -2   0  -8  642.14   38.50 
  -2   0   8  653.23   40.70 
   2   0   8  616.14   40.00 
  -3   0  -8    1.20    4.90 
  -3   0   8   -2.40    5.10 
  -3   0   8    3.00    6.50 
   3   0   8   -0.70    5.30 
  -3   0  -8   -1.00    5.70 
  -4   0  -8 1062.39   52.09 
  -4   0   8  954.30   57.89 
  -4   0   8  952.30   55.29 
  -4   0  -8 1063.29   57.79 
   4   0   8  966.70   56.39 
  -5   0   8    4.70    7.00 
   5   0   8    7.70    7.60 
  -5   0   8    0.40    7.00 
  -5   0  -8    7.70    8.10 
  -6   0   8  430.06   47.80 
   6   0   8  503.45   37.50 
  -6   0  -8  504.65   50.69 
  -7   0   8   -9.30   10.30 
  -7   0  -8   -0.90    8.60 
  -8   0  -8    8.50   13.30 
  -8   0   8   35.30   18.50 
  -9   0  -8   10.60   15.10 
  -9   0   8    9.60   16.60 
 -10   0  -8   -3.10   13.50 
 -10   0   8   10.50   21.30 
   0   1   8  646.64   41.10 
   0  -1   8  700.53   42.10 
  -1   1   8   70.89   14.50 
   1  -1   8   81.99   15.10 
  -1  -1   8   85.99   16.20 
   1   1   8  107.29   17.60 
  -2   1   8  551.54   36.00 
   2  -1   8  484.75   35.10 
  -2  -1  -8  518.95   34.50 
  -2   1  -8  538.15   33.50 
  -2   1  -8  563.34   34.10 
   2   1   8  496.15   36.00 
  -2  -1   8  546.15   36.80 
  -3   1   8  581.64   37.50 
   3  -1   8  509.05   36.70 
  -3  -1  -8  594.74   38.50 
   3   1   8  597.74   39.70 
  -3  -1   8  522.15   36.60 
  -3   1  -8  560.74   35.20 
  -3  -1   8  587.44   38.60 
  -3   1  -8  545.95   36.00 
   4  -1   8  388.66   30.70 
  -4   1   8  355.16   28.70 
  -4   1   8  375.76   38.10 
  -4  -1  -8  387.66   31.60 
  -4  -1   8  398.96   32.50 
  -4   1  -8  373.26   30.50 
  -4  -1   8  332.97   34.30 
   4   1   8  471.15   34.40 
  -5   1   8   51.19   15.60 
   5  -1   8   96.69   17.90 
  -5  -1  -8   81.59   17.60 
  -5   1   8   83.09   16.50 
  -5  -1   8   96.09   20.70 
  -5  -1   8   84.79   17.60 
  -5   1  -8   92.89   16.90 
   5   1   8   49.99   14.80 
  -5   1  -8   88.49   19.00 
  -6   1   8  395.16   45.20 
  -6  -1  -8  320.67   38.60 
  -6  -1   8  266.77   38.10 
   6   1   8  311.87   35.00 
  -6   1  -8  340.17   38.10 
  -7  -1  -8  137.39   27.70 
  -7   1   8   95.49   23.90 
  -7  -1   8  123.39   26.00 
  -7   1  -8  101.89   23.40 
  -8   1   8  108.29   28.20 
  -8  -1  -8  144.99   28.70 
  -8  -1   8  206.68   38.90 
  -8   1  -8  172.18   32.10 
  -9   1   8  -12.60   12.50 
  -9  -1  -8   -3.60   12.80 
  -9   1  -8    2.10   14.00 
  -9  -1   8   -6.40   13.30 
 -10  -1  -8   36.60   23.10 
 -10   1   8   16.70   21.40 
 -10   1  -8   31.60   20.60 
 -10  -1   8   13.50   19.40 
   0  -2   8 1316.77   67.69 
   0   2   8 1291.17   67.49 
   1  -2   8  116.49   19.40 
  -1   2   8   90.19   16.20 
   1   2   8  106.69   18.70 
  -1   2  -8   81.29   15.20 
  -1  -2   8   81.79   16.30 
   2  -2   8  709.63   44.10 
  -2   2   8  744.43   44.50 
  -2  -2  -8  727.43   43.90 
  -2   2  -8  719.33   40.80 
  -2   2  -8  786.82   44.10 
  -2  -2   8  857.41   48.00 
   2   2   8  663.33   44.70 
  -3  -2  -8   17.20    9.20 
   3  -2   8   28.40   10.20 
  -3   2   8   41.80   10.80 
  -3  -2   8   33.70   10.40 
  -3   2  -8   33.20    9.70 
  -3  -2   8   33.60   11.50 
   3   2   8    6.40    6.30 
  -3   2  -8   17.00    8.30 
  -4  -2  -8  188.88   26.00 
   4  -2   8  156.78   21.60 
  -4   2   8  156.18   21.40 
  -4   2   8  166.28   26.20 
  -4   2  -8  154.28   21.50 
  -4   2  -8  175.48   23.50 
  -4  -2   8  151.98   23.30 
   4   2   8  191.08   26.50 
  -4  -2   8  176.58   24.20 
  -5   2   8   20.80   13.30 
  -5   2   8    9.60    8.20 
   5  -2   8   22.80    9.80 
  -5  -2  -8   10.80    8.60 
  -5  -2   8   14.90    9.90 
  -5   2  -8   -2.20    6.30 
  -5   2  -8   21.30    9.60 
  -5  -2   8   10.10    9.70 
   5   2   8   17.70   10.80 
  -6  -2  -8    3.90    9.80 
  -6   2   8   35.30   15.60 
  -6  -2   8   30.60   13.70 
   6   2   8   24.90   12.60 
  -6   2  -8    1.80    7.90 
  -6   2  -8    6.60    8.90 
  -6  -2   8   10.90   11.40 
  -7  -2  -8   -4.40    8.20 
  -7   2   8    0.00   10.60 
  -7   2  -8    0.00    8.60 
  -7  -2   8   -1.70   12.50 
  -8   2   8  378.76   49.70 
  -8  -2  -8  301.07   43.20 
  -8   2  -8  310.77   44.80 
  -8  -2   8  467.85   55.09 
  -9   2   8   -4.80   14.50 
  -9  -2  -8    3.50   12.80 
  -9  -2   8    0.80   16.70 
  -9   2  -8  -13.10   12.50 
 -10  -2  -8   52.89   22.40 
 -10   2   8   48.00   27.60 
 -10   2  -8   48.30   25.20 
 -10  -2   8   42.30   24.50 
   0   3   8  520.55   35.90 
   0  -3   8  480.85   35.10 
  -1   3   8  164.88   22.50 
   1  -3   8  145.69   21.50 
   1   3   8  123.19   20.30 
  -1  -3   8  122.49   19.10 
  -1   3  -8  141.59   20.80 
  -2   3   8  407.66   29.80 
  -2  -3  -8  384.76   29.90 
   2  -3   8  364.96   29.00 
  -2   3  -8  392.86   26.10 
  -2  -3   8  352.76   30.00 
  -2   3  -8  355.26   28.70 
  -2  -3   8  420.56   27.20 
   2   3   8  341.47   29.60 
  -3   3   8  157.68   21.60 
  -3  -3  -8  163.58   23.40 
   3  -3   8  142.59   20.90 
   3   3   8  148.69   22.40 
  -3   3  -8  152.48   21.30 
  -3  -3   8  150.88   22.80 
  -3   3  -8  144.79   19.40 
  -3  -3   8  162.98   21.50 
  -4   3   8  375.96   39.00 
   4  -3   8  402.66   30.40 
  -4  -3  -8  363.46   37.50 
  -4   3   8  402.96   29.60 
  -4   3  -8  368.26   30.30 
  -4   3  -8  355.76   29.40 
   4   3   8  385.76   39.20 
  -4  -3   8  399.46   31.70 
  -4  -3   8  417.46   34.70 
  -5  -3  -8   27.50   11.20 
   5  -3   8    2.00    5.50 
  -5   3   8   33.00   13.40 
  -5  -3   8   33.20   13.30 
  -5  -3   8   45.10   14.40 
   5   3   8   43.80   14.30 
  -5   3  -8   35.60   12.50 
  -5   3  -8   42.60   13.00 
  -6   3   8  264.37   37.30 
  -6  -3  -8  159.78   28.10 
   6   3   8  257.27   33.50 
  -6   3  -8  234.88   30.50 
  -6   3  -8  235.88   31.80 
  -6  -3   8  216.78   32.40 
  -6  -3   8  331.37   38.20 
  -7   3   8   82.39   24.60 
  -7  -3  -8   49.20   17.90 
  -7   3  -8   76.49   21.60 
   7   3   8   85.89   21.10 
  -7  -3   8   84.99   22.30 
  -8  -3  -8   98.59   25.00 
  -8   3   8  161.28   35.80 
  -8  -3   8  212.78   38.10 
  -8   3  -8  117.49   29.20 
  -9   3   8   -0.40   14.80 
  -9  -3  -8    5.00   12.90 
  -9  -3   8    0.10   17.00 
  -9   3  -8  -12.80   14.70 
 -10   3   8   64.89   30.40 
 -10  -3  -8    1.70   13.30 
 -10  -3   8   75.39   28.90 
 -10   3  -8   74.09   28.70 
   0   4  -8 1766.42   84.89 
   0   4   8 1612.14   83.09 
   0  -4   8 1741.53   84.79 
   1  -4   8   43.40   12.20 
  -1   4   8   16.60    8.00 
  -1  -4   8   21.90    9.90 
   1   4   8   27.40   11.00 
  -1   4  -8   35.10   11.60 
  -2   4   8  422.26   31.10 
   2  -4   8  416.16   30.90 
  -2  -4  -8  369.96   30.20 
  -2   4  -8  395.36   26.10 
  -2   4  -8  413.96   31.80 
   2   4   8  391.86   39.70 
  -2  -4   8  393.96   26.80 
  -2  -4   8  403.76   33.00 
  -3  -4  -8    4.60    6.90 
  -3   4   8    3.20    6.10 
   3  -4   8    1.40    5.40 
  -3   4  -8    7.60    7.50 
   3   4   8   -2.20    7.00 
  -3   4  -8    5.30    6.20 
  -3  -4   8    2.00    7.40 
  -3  -4   8   -1.50    4.80 
  -4   4   8  635.34   40.90 
  -4  -4  -8  694.33   47.00 
  -4   4   8  643.14   47.30 
   4  -4   8  660.63   42.00 
  -4  -4   8  712.93   49.00 
   4   4   8  619.74   46.50 
  -4   4  -8  643.44   44.50 
  -4  -4   8  770.52   45.40 
  -4   4  -8  753.72   43.50 
  -5  -4  -8   16.50   10.60 
  -5   4   8    5.10    9.30 
   5  -4   8   22.10    9.40 
  -5  -4   8   10.80   10.40 
  -5  -4   8    7.10    9.20 
   5   4   8   23.10   13.90 
  -5   4  -8    0.40    7.90 
  -5   4  -8   19.10   11.50 
  -6   4   8  358.56   43.70 
  -6  -4  -8  201.28   32.00 
   6   4   8  261.27   36.50 
  -6  -4   8  291.97   37.90 
  -6   4  -8  292.57   35.40 
  -6   4  -8  336.27   38.30 
  -6  -4   8  305.67   38.50 
  -7   4   8   12.50   15.20 
  -7  -4  -8   22.10   14.00 
   7   4   8   40.10   15.80 
  -7   4  -8   52.19   18.00 
  -7   4  -8   26.30   15.30 
  -7  -4   8   67.89   21.70 
  -8  -4  -8    0.10   13.00 
  -8   4   8   -3.10   12.80 
  -8  -4   8    7.90   14.80 
  -8   4  -8    2.10   13.80 
  -9  -4  -8   22.50   18.50 
  -9   4   8   12.40   15.20 
  -9   4  -8    4.40   18.90 
  -9  -4   8    6.90   18.70 
   0   5   8  680.03   44.00 
   0   5  -8  627.34   43.00 
   0  -5   8  612.34   42.00 
  -1   5   8  270.87   29.90 
   1  -5   8  276.47   29.90 
   1   5   8  299.57   33.70 
  -1  -5   8  269.67   32.40 
  -1   5  -8  306.97   33.70 
  -2   5   8  257.07   28.90 
  -2  -5  -8  201.68   27.20 
   2  -5   8  212.48   26.10 
   2   5   8  181.38   26.90 
  -2   5  -8  224.28   18.40 
  -2  -5   8  263.97   32.70 
  -2   5  -8  210.28   27.10 
  -2  -5   8  267.67   20.00 
  -3   5   8  298.57   30.30 
   3  -5   8  299.97   31.00 
  -3  -5  -8  337.07   35.30 
  -3   5  -8  295.57   23.60 
  -3  -5   8  337.77   37.90 
   3   5   8  339.67   37.10 
  -3   5  -8  247.58   31.00 
  -3  -5   8  376.36   26.30 
   4  -5   8  143.49   20.90 
  -4  -5  -8  118.69   22.30 
  -4  -5  -8   66.99   17.40 
  -4   5   8  164.68   27.10 
  -4   5   8  131.99   19.30 
  -4  -5   8  153.38   26.00 
  -4   5  -8   88.09   18.70 
   4   5   8  156.58   27.40 
  -4   5  -8  134.49   19.80 
  -5   5   8   48.50   16.50 
  -5  -5  -8   55.19   16.90 
  -5  -5   8   64.79   16.70 
  -5  -5   8   57.19   18.60 
  -5   5  -8   21.50   11.70 
   5   5   8   15.50   11.80 
  -5   5  -8   29.70   13.30 
  -6   5   8  109.09   25.60 
  -6  -5  -8   67.69   19.10 
  -6  -5   8  113.79   24.40 
   6   5   8  162.58   29.30 
  -6   5  -8  114.89   23.50 
  -6   5  -8  141.79   27.20 
  -6  -5   8  120.29   23.40 
  -7   5   8  163.68   32.00 
  -7  -5  -8  212.18   34.20 
   7   5   8  285.17   40.80 
  -7  -5   8  207.68   33.60 
  -7   5  -8  168.28   31.10 
  -7   5  -8  161.38   30.20 
  -7  -5   8  179.88   33.90 
  -8  -5  -8   71.09   23.40 
  -8   5   8  102.29   28.70 
  -8  -5   8   68.89   23.10 
  -8   5  -8   43.70   21.30 
  -9   5   8   -6.10   16.80 
  -9  -5  -8   12.40   16.80 
  -9  -5   8    4.40   18.30 
  -9   5  -8  -10.20   17.30 
   0  -6   8  830.92   51.59 
   0   6   8  819.82   51.49 
   0   6  -8  740.43   49.70 
  -1   6   8   55.59   14.10 
  -1  -6  -8   61.49   16.40 
   1   6  -8   63.79   15.60 
   1  -6   8   45.90   13.40 
   1   6   8   51.99   16.20 
  -1   6  -8   63.49   16.80 
  -1  -6   8   58.99   15.50 
   2  -6   8   98.89   18.20 
  -2  -6  -8  101.49   20.00 
  -2   6   8  112.19   19.00 
  -2  -6   8  119.39   22.30 
  -2   6  -8  101.59   20.00 
  -3  -6  -8  151.98   24.20 
  -3   6   8  153.08   22.10 
  -3  -6  -8  225.98   31.30 
   3  -6   8  184.88   24.40 
  -3  -6   8  247.38   33.30 
  -3   6  -8  172.98   26.20 
  -4   6   8   71.99   15.90 
  -4  -6  -8   56.49   17.70 
  -4   6   8   51.09   15.30 
  -4  -6  -8   90.29   20.40 
   4  -6   8   69.79   15.40 
  -4   6  -8   89.29   20.90 
  -4  -6   8   40.40   14.70 
  -5  -6  -8   -4.40    7.60 
  -5  -6  -8    0.70    8.50 
  -5   6   8   -2.20    7.80 
  -5  -6   8    7.50   11.50 
  -5   6  -8    1.90    8.70 
  -6   6   8   32.10   15.80 
  -6  -6  -8   42.30   16.30 
  -6  -6  -8   44.80   17.00 
  -6   6  -8   43.90   17.80 
  -6  -6   8   30.50   16.30 
   6   6   8   50.19   19.90 
  -7  -6  -8   27.50   15.30 
  -7   6   8   22.70   16.40 
  -7   6  -8   19.70   15.10 
  -7  -6   8   28.90   19.60 
   7   6   8   26.50   17.80 
  -8   6   8  197.98   37.60 
  -8  -6  -8  146.29   31.80 
  -8   6  -8  160.38   33.30 
  -9   6   8    9.10   18.70 
  -9  -6  -8   34.10   20.90 
   0  -7   8    2.60    7.20 
   0   7   8   20.60   11.70 
   0   7  -8   19.70   10.70 
   0  -7  -8   11.90    8.70 
   1  -7   8   85.79   18.60 
  -1  -7  -8   64.79   16.70 
   1   7  -8   60.99   15.70 
  -1   7   8   49.20   14.80 
  -1   7  -8   57.19   15.60 
  -1  -7   8   92.29   19.90 
  -2   7   8   74.59   16.10 
   2  -7   8   61.89   16.50 
  -2  -7  -8   56.29   16.90 
  -2  -7   8   33.90   13.60 
  -2   7  -8   34.60   12.80 
  -3  -7  -8  111.19   23.20 
  -3  -7  -8   92.19   19.20 
  -3   7   8  152.58   22.40 
   3  -7   8  125.09   21.10 
  -3   7  -8  142.49   26.20 
  -3  -7   8  153.18   27.80 
  -4  -7  -8  204.58   29.50 
   4  -7   8  107.89   20.30 
  -4  -7  -8  132.89   26.70 
  -4   7   8  143.19   26.30 
  -4   7  -8  115.69   23.50 
  -4  -7   8  217.58   34.00 
  -5  -7  -8   48.90   16.40 
  -5   7   8   61.99   18.60 
  -5  -7  -8   82.79   22.10 
  -5   7  -8  112.19   24.90 
  -5  -7   8  123.49   26.50 
  -6  -7  -8   55.49   20.60 
  -6   7   8   96.39   25.10 
  -6  -7  -8   72.39   21.10 
  -6  -7   8   68.09   22.70 
  -6   7  -8  105.69   26.10 
  -7  -7  -8   70.59   23.60 
  -7   7   8   59.89   22.30 
  -7  -7  -8   76.39   22.20 
  -7  -7   8   83.79   26.60 
  -7   7  -8   41.90   21.30 
  -8  -7  -8   82.39   25.40 
  -8   7   8   74.69   25.80 
  -8  -7  -8   65.59   23.20 
   8   7   8   60.29   31.50 
  -8   7  -8   28.00   19.20 
  -9  -7  -8   -7.20   12.40 
  -9   7   8   12.80   19.90 
   0   8  -8  350.46   38.30 
   0  -8  -8  274.57   35.50 
   0  -8   8  326.27   38.40 
   1  -8   8   -3.40    6.30 
  -1  -8  -8    4.60    8.50 
   1   8  -8   -3.10    6.10 
  -1   8   8   -0.50    8.40 
  -1   8  -8   16.90   10.40 
  -1  -8   8   -4.10    6.00 
  -2   8   8   55.09   15.60 
   2  -8   8   90.09   18.70 
  -2  -8  -8   98.29   22.40 
  -2   8  -8   62.59   17.60 
  -2  -8   8   73.89   19.70 
  -3  -8  -8   10.70   10.20 
  -3  -8  -8   36.20   14.00 
  -3   8   8   16.80   11.00 
   3  -8   8   14.20   10.00 
  -3   8  -8   10.70   10.10 
  -3  -8   8   24.90   15.00 
  -4  -8  -8  105.29   25.80 
  -4   8   8   85.09   20.10 
   4  -8   8  131.99   26.80 
  -4  -8  -8  124.99   24.70 
  -4  -8   8  119.39   26.80 
  -4   8  -8   84.59   21.40 
  -5  -8  -8   58.79   19.90 
  -5  -8  -8   95.19   22.70 
  -5   8   8   65.49   20.10 
  -5   8  -8   78.89   22.80 
  -5  -8   8  104.19   24.70 
  -6  -8  -8  112.49   24.60 
  -6   8   8  164.98   32.20 
  -6  -8  -8  101.89   25.60 
  -6   8  -8  128.59   29.20 
  -6  -8   8  110.99   27.00 
  -7  -8  -8   98.19   25.40 
  -7   8   8  105.99   28.00 
  -7  -8  -8   63.19   23.50 
  -7  -8   8   64.39   24.70 
  -7   8  -8   57.79   21.70 
  -8   8   8   10.60   16.00 
  -8  -8  -8   26.80   19.40 
  -8  -8  -8   -3.60   13.20 
  -8   8  -8   24.50   20.90 
   0   9  -8  168.18   28.50 
   0  -9  -8  209.48   31.00 
   0  -9   8  209.68   32.30 
  -1  -9  -8   39.60   15.60 
   1   9  -8   34.30   14.80 
   1  -9   8   60.59   16.80 
   1  -9  -8   79.59   19.60 
  -1   9  -8   41.90   14.70 
  -1  -9   8   42.50   16.60 
  -2  -9  -8  132.79   27.60 
   2  -9   8  144.29   26.00 
  -2   9   8  157.58   25.40 
  -2  -9   8  142.19   27.70 
  -2   9  -8  148.59   28.90 
  -3  -9  -8  190.38   33.90 
  -3   9   8  207.08   28.70 
   3  -9   8  228.48   31.60 
  -3   9  -8  199.58   31.90 
  -3  -9   8  232.78   36.40 
  -4  -9  -8   59.89   17.80 
  -4  -9  -8   49.20   18.60 
  -4   9   8   73.09   20.60 
  -4   9  -8   55.99   20.10 
  -4  -9   8   59.09   21.30 
  -5  -9  -8  101.99   23.10 
  -5  -9  -8   55.69   22.10 
  -5   9   8  105.49   24.40 
  -5  -9   8  129.19   30.80 
  -5   9  -8   40.70   18.80 
  -6   9   8   50.29   20.60 
  -6  -9  -8   73.89   22.40 
  -6  -9  -8   50.79   21.90 
  -6   9  -8   45.20   20.10 
  -6  -9   8   40.80   20.40 
  -7   9   8   63.09   23.20 
  -7  -9  -8   51.09   21.00 
  -7  -9  -8   26.90   17.90 
  -7  -9   8   73.09   27.90 
  -7   9  -8   81.99   26.50 
  -8  -9  -8   23.00   19.60 
  -8  -9  -8   10.40   16.30 
  -8   9   8    6.50   19.30 
  -8   9  -8   17.20   21.90 
   0  10  -8   94.39   22.90 
   0 -10  -8  111.59   23.60 
   0 -10   8  114.79   25.80 
   1 -10   8  107.79   24.10 
  -1 -10  -8  185.48   32.00 
   1  10  -8  115.39   24.00 
  -1 -10   8  153.38   29.10 
   1 -10  -8  183.68   28.80 
  -1  10  -8  121.89   24.20 
   2 -10   8   53.39   17.30 
  -2 -10  -8   27.20   14.60 
  -2  10   8   53.59   17.50 
   2  10  -8   68.29   18.00 
  -2  10  -8   38.30   17.40 
   2 -10  -8   36.90   15.30 
  -2 -10   8   59.29   20.20 
   3 -10   8  191.38   31.20 
  -3 -10  -8  183.18   34.60 
  -3 -10   8  232.98   38.30 
  -3  10  -8  223.18   35.40 
  -4 -10  -8   10.30   11.70 
  -4  10   8    4.30   11.60 
  -4 -10  -8    6.30   10.30 
  -4 -10   8   -0.40   13.70 
  -4  10  -8   11.00   14.50 
  -5  10   8    2.20   12.50 
  -5 -10  -8    4.90   11.60 
  -5 -10  -8   -1.30   11.40 
  -5 -10   8    7.60   14.10 
  -5  10  -8   11.50   13.80 
  -6  10   8   -0.20   13.60 
  -6 -10  -8    3.50   11.20 
  -6 -10  -8  -10.60   10.60 
  -6  10  -8    3.60   13.70 
  -6 -10   8    0.20   14.50 
  -7 -10  -8    1.50   15.40 
  -7 -10  -8   34.80   19.40 
  -7  10   8   27.90   19.50 
  -7  10  -8    1.40   18.00 
  -7 -10   8   -5.20   16.40 
   0 -11  -8   51.39   19.10 
   0 -11   8   25.20   16.10 
   0  11  -8   37.20   15.20 
   1  11  -8    9.30   10.30 
   1 -11   8   11.70   12.90 
  -1 -11  -8    5.70   10.60 
   1 -11  -8    7.70   11.60 
  -1  11  -8    6.30   10.50 
  -1 -11   8  -11.00    9.80 
   2 -11   8   -0.20   11.80 
  -2 -11  -8   55.49   21.20 
   2  11  -8    5.50   11.80 
  -2  11  -8   11.10   12.60 
   2 -11  -8    6.50   10.10 
  -2 -11   8    3.70   10.20 
   3 -11   8   71.09   21.20 
  -3  11   8   52.79   18.30 
  -3 -11  -8   84.09   25.00 
  -3  11  -8  101.09   25.30 
  -3 -11   8   95.09   27.50 
  -4 -11  -8  120.09   29.90 
  -4  11   8  123.39   26.50 
  -4 -11   8   87.79   27.40 
  -4  11  -8  104.69   27.40 
  -5 -11  -8   85.89   26.90 
  -5 -11  -8   91.59   22.80 
  -5  11   8   77.59   24.30 
  -5  11  -8   56.79   23.40 
  -5 -11   8   63.69   25.40 
  -6 -11  -8   -2.00   13.70 
  -6 -11  -8    8.60   14.20 
  -6  11   8    1.20   15.50 
  -6 -11   8   -1.80   15.30 
  -6  11  -8   -0.20   12.70 
  -7 -11  -8   35.20   18.70 
  -7 -11  -8   -5.80   16.00 
  -7  11   8   18.90   19.60 
  -7 -11   8   12.50   19.40 
  -7  11  -8   21.60   20.30 
   0 -12   8  105.29   27.00 
   0  12  -8  130.99   28.30 
   0 -12  -8  107.19   26.00 
   1 -12   8  -10.50    9.00 
  -1 -12  -8   15.40   13.40 
   1  12  -8    9.90   12.20 
   1 -12  -8   11.30   13.10 
  -1  12  -8    0.00   12.10 
  -1 -12   8    3.30   14.30 
  -2 -12  -8   -1.80   11.20 
   2  12  -8    9.60   11.40 
   2 -12   8   -7.10   11.20 
  -2  12  -8    5.20   12.10 
  -2 -12   8    7.00   12.50 
   2 -12  -8    2.70   13.20 
  -3 -12  -8    5.80   13.10 
  -3  12   8    6.10   12.40 
  -3 -12   8   -4.40   13.10 
  -3  12  -8    3.10   12.10 
  -4 -12  -8   27.60   17.30 
  -4  12   8   -0.90   13.40 
  -4  12  -8   14.90   14.60 
  -4 -12   8    0.80   15.00 
  -5 -12  -8   52.99   23.00 
  -5  12  -8   62.89   25.50 
  -5 -12   8   27.00   20.10 
  -6 -12  -8   -0.80   16.50 
  -6  12  -8    5.30   15.90 
  -6 -12   8    2.10   17.10 
   0  13  -8   86.39   23.30 
   0 -13   8   93.59   28.40 
   0 -13  -8   94.99   26.40 
  -1 -13  -8   11.90   15.00 
   1  13  -8   44.70   19.30 
   1 -13   8    6.90   14.70 
  -1  13  -8   17.00   13.70 
  -1 -13   8    1.20   14.30 
   1 -13  -8   22.70   14.40 
   2  13  -8   20.50   15.00 
  -2 -13  -8   40.50   19.90 
   2 -13   8   13.20   15.30 
  -2  13  -8   15.10   15.80 
  -2 -13   8    6.30   15.60 
  -3 -13  -8   40.30   21.10 
  -3  13  -8   77.89   23.70 
  -3 -13   8   23.20   19.50 
  -4 -13  -8   18.00   18.40 
  -4 -13   8   15.50   17.40 
  -4  13  -8    8.50   14.30 
  -5 -13  -8   16.70   17.70 
  -5 -13   8   17.50   20.90 
  -5  13  -8   64.59   25.80 
   0  14  -8   27.70   17.70 
   0 -14   8   -0.20   16.70 
   0 -14  -8   -1.00   13.10 
   1 -14   8   54.29   22.90 
   1  14  -8   63.39   22.80 
  -1 -14  -8   63.49   22.70 
  -1 -14   8   38.50   22.20 
   1 -14  -8   62.99   20.60 
  -1  14  -8   66.69   21.90 
   2  14  -8   -5.60   13.60 
  -2 -14  -8   -9.10   14.20 
   2 -14   8    4.00   17.20 
  -2 -14   8   -9.60   16.00 
  -2  14  -8   13.40   17.90 
  -3 -14  -8   77.59   27.30 
  -3  14  -8   96.89   27.80 
  -3 -14   8  121.29   32.60 
   0  15  -8   71.69   24.70 
   0 -15   8   62.39   27.10 
   0 -15  -8   73.89   26.80 
  -1 -15  -8  -16.80   14.40 
   1  15  -8   11.60   16.30 
   1 -15   8    2.60   17.40 
   1 -15  -8   -0.70   16.20 
  -1 -15   8    6.50   17.70 
  -1  15  -8   -2.40   14.80 
   0   0   9    6.10    5.70 
   1   0   9   -0.80    5.00 
  -1   0   9    0.60    5.70 
  -2   0  -9  112.69   17.60 
   2   0   9  145.39   22.60 
  -2   0   9  114.39   19.40 
  -3   0  -9    1.80    6.10 
  -3   0  -9   -1.90    5.50 
  -3   0   9   -1.60    5.50 
   3   0   9    0.80    6.30 
  -4   0   9  185.98   27.00 
  -4   0  -9  234.88   24.20 
  -4   0   9  183.68   25.10 
  -4   0  -9  145.09   22.60 
   4   0   9  216.18   28.20 
  -5   0  -9   -1.40    7.10 
   5   0   9    3.60    8.70 
  -5   0   9   -0.40    7.50 
  -5   0   9   -4.60    7.30 
  -6   0   9  572.84   56.19 
  -6   0  -9  442.76   47.10 
   6   0   9  449.56   38.10 
  -7   0  -9   -0.60   10.20 
  -7   0   9   -4.80   11.60 
  -8   0   9  174.58   36.20 
  -8   0  -9  176.98   33.20 
  -9   0  -9   -0.90   13.40 
  -9   0   9    9.50   19.80 
 -10   0  -9   34.20   20.30 
   0  -1   9    6.50    6.10 
   0   1   9    4.30    7.10 
   1  -1   9  178.38   23.90 
  -1   1   9  163.78   23.70 
   1   1   9  133.69   21.20 
  -1  -1   9  159.48   24.60 
  -2   1   9  228.58   26.90 
   2  -1   9  219.48   27.10 
  -2  -1  -9  215.08   25.00 
   2   1   9  186.78   25.10 
  -2  -1   9  210.78   26.60 
  -2   1  -9  210.58   24.60 
  -2   1  -9  239.78   25.60 
  -3   1   9  188.38   24.40 
  -3  -1  -9  171.98   24.10 
   3  -1   9  233.78   28.50 
  -3  -1   9  233.18   27.90 
   3   1   9  195.18   26.90 
  -3   1  -9  227.68   25.20 
  -3   1  -9  197.38   24.20 
  -3  -1   9  188.98   25.50 
  -4   1   9  290.57   32.10 
  -4  -1  -9  326.57   34.90 
   4  -1   9  333.87   35.60 
  -4   1   9  336.37   37.60 
  -4  -1   9  404.56   32.80 
   4   1   9  354.06   37.90 
  -4  -1   9  361.86   37.40 
  -4   1  -9  373.46   36.80 
  -5   1   9  173.58   24.70 
   5  -1   9  239.08   30.50 
  -5  -1  -9  174.38   27.80 
  -5   1   9  151.88   26.30 
   5   1   9  163.48   26.10 
  -5  -1   9  162.28   24.70 
  -5  -1   9  172.08   27.90 
  -5   1  -9  151.08   25.40 
  -6  -1  -9   36.50   15.30 
  -6   1   9   48.90   18.00 
   6  -1   9   32.00   14.90 
  -6  -1   9   22.30   12.80 
  -6   1  -9   35.80   15.50 
   6   1   9   32.70   15.20 
  -7   1   9   29.20   14.80 
  -7  -1  -9    3.70   11.20 
  -7   1  -9    8.80   12.30 
  -7  -1   9    6.70   10.50 
  -8   1   9   29.90   18.00 
  -8  -1  -9   11.40   13.30 
  -8  -1   9   33.30   20.50 
  -8   1  -9   11.40   13.60 
  -9   1   9    6.00   18.40 
  -9  -1  -9   16.10   17.20 
  -9  -1   9   48.60   24.30 
  -9   1  -9   39.20   20.40 
 -10  -1  -9   48.70   22.90 
 -10   1  -9   71.09   27.30 
   0   2   9   -3.00    4.70 
   0  -2   9    1.30    5.20 
   1  -2   9   92.09   17.50 
  -1   2   9   92.29   17.10 
   1   2   9  116.29   19.30 
  -1  -2   9   83.89   17.50 
  -2  -2  -9 1116.09   62.79 
   2  -2   9 1255.37   65.49 
  -2   2   9 1109.49   63.39 
   2   2   9 1158.08   65.79 
  -2  -2   9 1212.48   66.19 
  -2   2  -9 1221.48   62.99 
  -2   2  -9 1171.98   59.69 
  -3   2   9   14.30    8.10 
   3  -2   9   19.40    8.90 
  -3  -2  -9   31.30   10.90 
  -3   2  -9   12.40    7.90 
  -3  -2   9   17.40   10.10 
   3   2   9    9.90    7.80 
  -3   2  -9   14.50    8.00 
  -3  -2   9    8.50    6.90 
   4  -2   9  393.86   31.10 
  -4   2   9  367.26   30.40 
  -4   2   9  337.07   37.90 
  -4  -2  -9  265.77   32.90 
  -4  -2   9  366.66   37.60 
   4   2   9  444.76   35.80 
  -4   2  -9  358.16   29.60 
  -4  -2   9  340.07   36.90 
  -4   2  -9  405.96   31.20 
   5  -2   9    6.50    7.60 
  -5   2   9    9.20    8.30 
  -5   2   9   24.20   13.40 
  -5  -2  -9   41.70   14.20 
  -5  -2   9   11.40   10.80 
  -5   2  -9   19.00   10.10 
  -5  -2   9   16.20   10.80 
   5   2   9   25.70   13.50 
  -5   2  -9    7.00    8.10 
  -6  -2  -9   -2.30    8.70 
  -6   2   9    5.30   12.20 
  -6  -2   9   -9.20    9.00 
  -6   2  -9   11.00   11.70 
  -6  -2   9    4.20   10.10 
   6   2   9   -1.30    9.40 
  -7  -2  -9   13.10   11.40 
  -7   2   9   -4.10   11.30 
  -7  -2   9    8.40   13.10 
  -7   2  -9   -5.00    9.10 
  -8   2   9   23.40   18.70 
  -8  -2  -9   26.90   15.40 
  -8  -2   9   14.00   15.90 
  -8   2  -9    6.00   12.00 
  -9  -2  -9   15.40   15.20 
  -9   2   9   -2.40   17.00 
  -9   2  -9   26.40   18.00 
  -9  -2   9   17.80   22.20 
   0  -3   9    4.80    5.80 
   0   3   9   -0.70    5.50 
  -1   3   9  713.43   46.30 
   1  -3   9  704.33   46.40 
   1   3   9  730.53   47.80 
  -1  -3   9  712.73   46.60 
  -1   3  -9  760.52   46.40 
  -2   3   9  356.76   35.00 
  -2  -3  -9  331.47   34.30 
   2  -3   9  335.07   34.90 
  -2   3  -9  367.96   26.30 
   2   3   9  351.26   36.70 
  -2   3  -9  271.47   30.50 
  -2  -3   9  353.26   36.80 
   3  -3   9   45.50   12.70 
  -3  -3  -9   20.00    9.70 
  -3   3   9   38.50   11.90 
  -3  -3   9   33.50   10.40 
   3   3   9   37.50   12.90 
  -3  -3   9   33.20   12.20 
  -3   3  -9   33.50   10.30 
  -3   3  -9   27.60   10.80 
   4  -3   9  104.69   19.30 
  -4   3   9  126.99   19.70 
  -4  -3  -9  142.79   23.40 
  -4   3   9  169.48   26.50 
   4   3   9  118.19   22.30 
  -4   3  -9  125.99   19.80 
  -4  -3   9  133.69   22.40 
  -4  -3   9  121.19   22.60 
  -4   3  -9  128.89   21.30 
   5  -3   9  194.08   26.10 
  -5   3   9  169.98   28.90 
  -5  -3  -9  134.39   24.80 
  -5   3  -9  125.39   22.20 
  -5   3  -9  133.49   22.60 
  -5  -3   9   89.49   19.30 
   5   3   9  120.59   22.80 
  -5  -3   9   87.19   20.30 
  -6  -3  -9  171.88   30.40 
  -6   3   9   82.69   22.50 
  -6  -3   9  153.78   26.30 
  -6  -3   9  125.69   26.60 
   6   3   9  117.99   24.80 
  -6   3  -9  117.69   23.50 
  -6   3  -9  128.79   23.80 
  -7  -3  -9   57.59   20.90 
  -7   3   9   47.20   21.70 
   7   3   9   41.70   17.90 
  -7  -3   9   30.10   18.00 
  -7   3  -9   56.29   19.00 
  -8  -3  -9    5.30   10.90 
  -8   3   9   18.70   16.40 
  -8   3  -9   16.80   14.40 
  -8  -3   9    9.60   14.90 
  -9  -3  -9   39.40   19.30 
  -9   3   9   96.79   30.30 
  -9  -3   9   93.09   29.10 
  -9   3  -9   62.79   25.80 
   0  -4   9   -4.50    5.00 
   0   4  -9    1.70    5.50 
   0   4   9    1.30    6.60 
  -1   4   9  180.28   24.60 
   1  -4   9  192.08   26.40 
  -1  -4   9  143.09   23.30 
  -1   4  -9  160.18   25.30 
   1   4   9  156.08   23.90 
   2  -4   9   55.59   14.60 
  -2   4   9   81.69   16.60 
  -2  -4  -9   75.79   17.50 
  -2   4  -9   85.29   15.00 
   2   4   9   98.29   20.10 
  -2  -4   9   89.19   14.80 
  -2  -4   9  101.69   19.70 
  -2   4  -9   64.79   15.20 
  -3  -4  -9  112.89   21.50 
   3  -4   9  139.39   21.70 
  -3   4   9  140.39   21.10 
  -3   4  -9  103.99   19.50 
   3   4   9  149.88   25.30 
  -3  -4   9  153.58   25.50 
  -3   4  -9  134.29   19.50 
  -3  -4   9   91.69   16.70 
   4  -4   9  207.08   26.60 
  -4   4   9  209.38   25.90 
  -4  -4  -9  249.48   33.90 
  -4   4   9  218.58   31.40 
  -4  -4   9  165.98   28.00 
  -4   4  -9  184.58   23.60 
  -4   4  -9  164.88   25.40 
  -4  -4   9  175.88   24.80 
   4   4   9  170.68   27.70 
  -5   4   9   74.19   21.20 
  -5  -4  -9   38.50   14.50 
   5  -4   9   64.39   15.60 
  -5   4  -9   74.29   18.00 
  -5  -4   9   50.89   16.20 
  -5  -4   9   77.39   19.10 
  -5   4  -9   86.39   19.30 
   5   4   9   89.39   21.90 
  -6   4   9  408.86   49.10 
  -6  -4  -9  374.16   43.80 
  -6   4  -9  492.85   40.10 
  -6   4  -9  472.25   47.60 
  -6  -4   9  508.75   50.59 
   6   4   9  347.87   42.70 
  -6  -4   9  394.66   46.40 
  -7  -4  -9   18.40   13.20 
  -7   4   9    8.90   14.20 
  -7  -4   9   24.10   16.80 
  -7   4  -9   19.90   13.60 
   7   4   9   22.30   16.00 
  -8  -4  -9   42.10   20.40 
  -8   4   9   25.70   18.00 
  -8   4  -9   56.79   21.80 
  -8  -4   9   47.10   21.40 
  -9  -4  -9   -0.60   14.50 
  -9   4   9   -4.00   17.50 
  -9   4  -9    8.20   16.50 
  -9  -4   9   -3.70   16.70 
   0   5   9   -5.30    5.00 
   0   5  -9   -2.90    5.30 
   0  -5   9   -1.30    6.60 
  -1   5   9   39.90   12.80 
   1  -5   9   20.80    9.00 
  -1   5  -9   28.50   11.40 
  -1  -5   9   44.10   14.10 
   1   5   9   40.70   14.00 
  -2   5   9   63.09   14.80 
   2  -5   9   84.29   17.40 
  -2  -5   9   97.29   15.30 
  -2   5  -9  111.69   21.40 
  -2  -5   9   53.49   15.60 
   2   5   9  101.39   22.50 
  -3   5   9  410.46   31.50 
   3  -5   9  351.56   36.00 
  -3  -5  -9  309.87   35.20 
  -3  -5   9  230.18   34.50 
  -3   5  -9  297.77   25.10 
  -3   5  -9  324.67   37.40 
  -3  -5   9  395.56   28.20 
   3   5   9  351.16   40.80 
  -4   5   9  127.89   20.50 
  -4   5   9   89.69   21.00 
  -4  -5  -9   97.59   21.30 
   4  -5   9  142.59   22.30 
  -4   5  -9  116.49   19.50 
  -4   5  -9  127.89   23.70 
  -4  -5   9  120.69   23.80 
   4   5   9  152.58   28.20 
  -5   5   9  239.78   35.20 
  -5  -5  -9  199.78   30.20 
  -5  -5   9  160.78   26.30 
  -5   5  -9  171.78   27.70 
   5   5   9  129.19   27.10 
  -5   5  -9  172.28   25.00 
  -5  -5   9  174.08   29.60 
  -6   5   9   57.69   19.80 
  -6  -5  -9   67.49   19.40 
   6   5   9   66.19   21.50 
  -6  -5   9   48.00   19.80 
  -6   5  -9   80.39   20.30 
  -6   5  -9  109.89   24.60 
  -6  -5   9  109.49   23.80 
  -7  -5  -9   40.90   17.10 
  -7   5   9   38.90   20.60 
  -7  -5   9   52.99   30.80 
   7   5   9   59.39   20.80 
  -7  -5   9   62.39   21.30 
  -7   5  -9   64.09   20.90 
  -7   5  -9   20.60   15.70 
  -8   5   9    7.40   14.80 
  -8  -5  -9    6.70   11.40 
  -8  -5   9    4.00   17.10 
  -8   5  -9    9.60   16.20 
  -9  -5  -9   24.40   20.50 
  -9   5   9   18.30   20.00 
  -9  -5   9    0.50   26.10 
   0   6  -9    4.90    7.90 
   0  -6   9    0.70    6.80 
   0   6   9    0.30    6.90 
   1  -6   9  288.17   34.00 
  -1   6   9  333.07   35.30 
   1   6   9  241.68   33.70 
  -1  -6   9  264.67   33.70 
  -1   6  -9  237.58   32.10 
  -2   6   9  271.27   31.50 
   2  -6   9  295.07   33.90 
  -2  -6   9  249.38   33.90 
   2   6   9  291.47   36.00 
  -2   6  -9  335.87   37.30 
  -3   6   9   63.29   15.20 
   3  -6   9   86.39   18.40 
  -3  -6  -9   70.79   17.00 
  -3  -6   9   74.29   19.20 
  -3   6  -9  104.99   21.90 
   3   6   9   91.09   21.30 
  -4   6   9  274.77   41.10 
  -4   6   9  264.97   35.60 
  -4  -6  -9  275.97   36.20 
   4  -6   9  306.87   33.70 
   4   6   9  335.57   42.40 
  -4  -6   9  300.97   39.10 
  -4   6  -9  287.87   36.50 
  -5   6   9   14.00   11.80 
  -5  -6  -9   28.10   14.00 
  -5  -6   9   19.40   14.60 
   5   6   9   20.80   14.60 
  -5   6  -9   22.60   12.90 
  -6   6   9   -5.00   10.00 
  -6  -6  -9   -1.40    9.70 
   6   6   9   -7.90   10.90 
  -6  -6   9    7.00   12.60 
  -6   6  -9   13.20   14.20 
  -7   6   9  109.29   29.10 
  -7  -6  -9   62.09   19.60 
   7   6   9   46.80   22.20 
  -7   6  -9   90.69   24.30 
  -7  -6   9   69.89   24.90 
  -8  -6  -9   27.00   15.50 
  -8   6   9   27.10   17.40 
  -9   6   9  110.39   35.10 
  -9  -6  -9   45.50   22.80 
   0   7   9   -0.10    7.40 
   0   7  -9    4.90    7.30 
   0  -7   9    1.30    6.60 
  -1   7   9  473.45   38.40 
   1  -7   9  431.76   37.50 
   1   7  -9  481.15   40.40 
  -1   7  -9  489.75   40.80 
   1   7   9  539.15   42.90 
  -1  -7   9  559.44   43.20 
   2  -7   9  276.47   32.80 
  -2   7   9  273.67   31.90 
  -2  -7  -9  243.18   35.80 
   2   7   9  246.98   36.10 
  -2   7  -9  279.67   34.70 
  -2  -7   9  319.97   38.60 
  -3  -7  -9   90.29   22.70 
  -3   7   9  108.89   20.20 
   3  -7   9   45.90   14.80 
  -3  -7  -9  117.09   23.10 
  -3  -7   9   90.89   22.20 
   3   7   9  102.09   23.90 
  -3   7  -9   42.80   14.90 
  -4  -7  -9  112.19   22.90 
  -4   7   9  200.98   32.00 
   4  -7   9  142.19   23.90 
  -4  -7  -9  158.98   30.10 
   4   7   9  197.98   34.80 
  -4   7  -9  183.38   31.00 
  -4  -7   9  238.38   36.50 
  -5  -7  -9   70.89   21.80 
  -5  -7  -9   37.50   16.00 
  -5   7   9  107.99   24.90 
  -5  -7   9   90.09   23.00 
   5   7   9   50.09   20.50 
  -5   7  -9   32.40   16.70 
  -6  -7  -9   23.20   14.30 
  -6   7   9    2.70   11.50 
  -6  -7  -9   13.10   13.90 
   6   7   9   12.10   16.20 
  -6   7  -9   19.20   13.40 
  -6  -7   9   16.00   15.90 
  -7  -7  -9   91.29   24.40 
  -7   7   9   73.79   24.30 
   7   7   9  103.59   28.50 
  -7   7  -9   86.49   25.40 
  -7  -7   9   46.40   23.10 
  -8  -7  -9   10.00   15.90 
  -8   7   9    3.30   15.50 
   8   7   9   -8.00   23.70 
  -8   7  -9   15.30   18.30 
   0   8   9    3.10    7.80 
   0  -8   9   -4.10    7.00 
   0   8  -9    6.30    9.10 
   1  -8   9  197.18   29.60 
  -1   8   9  208.18   30.30 
  -1  -8  -9  236.08   34.00 
   1   8  -9  217.78   32.20 
  -1   8  -9  205.98   30.90 
   1   8   9  226.18   33.60 
  -1  -8   9  235.58   33.20 
  -2   8   9  133.89   24.10 
   2  -8   9  175.78   27.10 
  -2  -8  -9  191.88   31.30 
  -2  -8   9  181.98   31.50 
  -2   8  -9  201.38   31.90 
  -3  -8  -9  199.88   33.50 
   3  -8   9  166.48   27.00 
  -3   8   9  150.78   23.80 
  -3  -8   9  168.58   31.70 
  -3   8  -9  212.28   32.60 
  -4  -8  -9   49.20   15.80 
  -4  -8  -9   49.50   18.90 
   4  -8   9   46.80   16.00 
  -4   8   9   57.39   19.40 
  -4  -8   9   69.89   21.40 
  -4   8  -9   34.50   15.10 
  -5  -8  -9  339.77   48.20 
  -5  -8  -9  251.97   36.80 
  -5   8   9  382.96   46.70 
  -5   8  -9  299.67   42.90 
  -5  -8   9  306.17   45.10 
  -6   8   9   38.00   18.00 
  -6  -8  -9   96.89   26.60 
  -6  -8  -9   95.69   24.60 
  -6   8  -9   76.49   23.80 
  -6  -8   9  142.89   33.10 
  -7  -8  -9   49.50   22.90 
  -7  -8  -9   28.80   15.40 
  -7   8   9   51.29   21.30 
  -7  -8   9   55.99   23.10 
  -7   8  -9   18.50   19.00 
   7   8   9   22.50   19.50 
  -8  -8  -9    0.10   16.30 
  -8   8   9    4.20   18.50 
  -8   8  -9    3.90   18.70 
   8   8   9   -1.00   17.80 
   0   9   9    2.30    8.90 
   0  -9  -9    0.20    8.70 
   0   9  -9   -1.70    9.00 
   0  -9   9    2.60    8.60 
  -1  -9  -9   56.59   18.30 
  -1   9   9   53.99   16.60 
   1   9  -9  101.39   22.10 
   1  -9   9   21.70   12.50 
  -1  -9   9  100.19   23.60 
  -1   9  -9   73.19   19.60 
  -2   9   9   83.39   20.70 
  -2  -9  -9   75.59   21.60 
   2  -9   9   88.19   20.80 
  -2   9  -9   65.09   19.70 
  -2  -9   9   49.10   18.80 
   3  -9   9  151.28   26.10 
  -3   9   9  190.48   28.30 
  -3  -9  -9  162.58   31.10 
  -3  -9   9  150.78   29.90 
  -3   9  -9  194.18   34.90 
  -4  -9  -9    9.30   11.80 
  -4   9   9   16.60   12.30 
  -4  -9  -9   18.30   12.20 
  -4   9  -9    2.60   10.40 
  -4  -9   9    4.40   13.90 
  -5  -9  -9  157.18   33.90 
  -5   9   9  168.28   32.40 
  -5  -9  -9  232.18   34.10 
  -5   9  -9  161.48   33.50 
  -5  -9   9  180.78   36.30 
  -6  -9  -9   64.19   21.00 
  -6   9   9   52.29   19.60 
  -6  -9  -9   54.59   22.90 
  -6  -9   9   65.69   25.80 
  -6   9  -9   80.69   25.70 
  -7   9   9   43.40   21.20 
  -7  -9  -9   78.39   27.20 
  -7  -9  -9   75.79   23.90 
  -7  -9   9   86.59   31.10 
  -7   9  -9   58.59   23.30 
   0  10  -9   -1.00    9.20 
   0 -10  -9    5.40   10.40 
   0 -10   9   -4.10    8.00 
   1  10  -9  163.28   31.10 
   1 -10   9  243.28   36.20 
  -1  10   9  216.98   32.70 
  -1 -10  -9  180.18   32.20 
  -1  10  -9  255.47   37.20 
  -1 -10   9  248.78   38.20 
  -2 -10  -9   43.70   19.00 
  -2  10   9   63.49   19.10 
   2 -10   9   50.69   17.80 
  -2  10  -9   64.99   21.50 
  -2 -10   9   35.50   16.40 
  -3 -10  -9   54.59   21.90 
   3 -10   9   81.39   21.30 
  -3 -10   9   52.19   19.40 
  -3  10  -9   68.39   21.40 
  -4  10   9   19.00   13.60 
  -4 -10  -9   89.39   25.80 
  -4 -10   9   49.50   22.70 
  -4  10  -9   68.09   22.60 
  -5 -10  -9   -1.70   11.90 
  -5  10   9    6.20   11.30 
  -5 -10  -9    7.40   12.90 
  -5 -10   9   -2.20   14.40 
  -5  10  -9    4.90   14.80 
  -6 -10  -9   19.30   16.40 
  -6  10   9   -1.90   13.30 
  -6 -10  -9   -1.40   10.00 
  -6  10  -9    4.20   17.40 
  -6 -10   9   -1.00   16.90 
  -7 -10  -9   73.99   23.90 
  -7 -10  -9   82.59   27.50 
  -7  10   9   95.79   30.00 
  -7  10  -9   66.19   27.10 
  -7 -10   9   98.19   32.20 
   0 -11  -9   -0.90    9.70 
   0 -11   9    7.00   11.50 
   0  11  -9    7.20   11.40 
  -1  11   9  315.37   41.00 
   1  11  -9  332.77   43.70 
   1 -11   9  355.26   44.60 
  -1 -11  -9  282.97   41.20 
  -1 -11   9  246.48   39.80 
   1 -11  -9  302.27   40.20 
  -1  11  -9  310.27   41.90 
   2 -11   9  109.49   25.70 
  -2 -11  -9  113.09   28.20 
  -2  11   9  137.09   26.90 
  -2  11  -9  129.79   28.40 
  -2 -11   9  117.89   28.60 
   3 -11   9   32.20   17.70 
  -3 -11  -9    8.00   13.20 
  -3 -11   9   51.99   21.10 
  -3  11  -9    8.50   14.60 
  -4  11   9   24.50   15.30 
  -4 -11  -9   39.40   19.20 
  -4 -11   9   23.90   18.00 
  -4  11  -9   34.80   19.40 
  -5  11   9   30.20   16.60 
  -5 -11  -9   49.60   23.50 
  -5 -11  -9   25.40   16.00 
  -5 -11   9   42.60   22.60 
  -5  11  -9   56.99   23.90 
  -6 -11  -9    5.00   16.30 
  -6  11   9   12.20   15.70 
  -6 -11  -9   19.30   17.90 
  -6  11  -9   -3.50   15.80 
  -6 -11   9    0.40   21.30 
   0 -12  -9   -3.40   11.00 
   0 -12   9  -10.90   10.80 
   0  12  -9   -5.40   10.70 
  -1 -12  -9  129.99   29.30 
   1 -12   9   83.19   23.70 
   1  12  -9   87.99   23.40 
   1 -12  -9   63.69   20.60 
  -1  12  -9   46.90   19.10 
  -1 -12   9  136.59   31.00 
  -2  12   9    8.20   14.40 
  -2 -12  -9    5.50   14.30 
   2 -12   9    8.20   12.30 
  -2 -12   9   -9.30   13.30 
  -2  12  -9   18.50   15.30 
  -3 -12  -9  109.29   29.40 
  -3  12   9  102.69   25.70 
  -3 -12   9  179.78   38.50 
  -3  12  -9  148.39   32.50 
  -4  12   9   14.80   15.70 
  -4 -12  -9    6.00   16.80 
  -4  12  -9   16.40   17.20 
  -4 -12   9    1.90   15.20 
  -5  12   9  103.69   27.40 
  -5 -12  -9  160.88   37.50 
  -5 -12   9  163.28   40.00 
  -5  12  -9  178.78   35.90 
   0 -13   9   -3.60   12.80 
   0  13  -9   -1.00   12.40 
   0 -13  -9    7.30   13.90 
  -1 -13  -9   27.50   17.80 
   1 -13   9   30.40   18.50 
   1  13  -9   32.00   17.50 
   1 -13  -9   44.00   19.40 
  -1 -13   9   17.80   17.10 
  -1  13  -9   26.50   17.20 
  -2 -13  -9   22.80   16.60 
   2 -13   9    2.60   15.50 
  -2  13  -9   24.50   18.20 
  -2 -13   9   20.90   18.40 
  -3 -13  -9   45.20   19.70 
  -3  13  -9  106.99   27.90 
  -3 -13   9   60.39   25.40 
  -4 -13  -9   -9.10   16.10 
  -4 -13   9    6.70   17.60 
  -4  13  -9   13.10   17.20 
   0  14  -9    4.60   14.30 
   0 -14   9   10.60   18.10 
   0 -14  -9   -0.70   14.80 
   1 -14   9  103.09   31.00 
  -1 -14  -9   93.99   28.30 
   1  14  -9  116.59   29.80 
  -1 -14   9   88.09   28.50 
   1 -14  -9   76.19   23.10 
  -1  14  -9  135.29   33.60 
  -2 -14  -9   -0.80   16.10 
   2 -14   9    7.50   18.90 
  -2  14  -9   11.10   15.70 
  -2 -14   9    4.80   17.20 
  -3  14  -9    6.40   15.50 
   0   0  10 1019.60   60.49 
  -1   0  10    4.20    6.90 
   1   0  10   -2.70    6.30 
   2   0  10  532.25   40.50 
  -2   0  10  522.15   39.90 
  -2   0 -10  548.65   37.90 
  -3   0 -10   -1.30    5.90 
  -3   0  10   -1.70    6.00 
   3   0  10    2.70    6.20 
  -4   0  10  109.09   21.70 
  -4   0 -10  124.49   22.00 
  -4   0  10  145.89   23.20 
   4   0  10   97.49   19.80 
  -5   0  10   -2.50    9.20 
  -5   0 -10    5.20    7.90 
  -5   0  10    9.30    9.60 
   5   0  10  -10.10    5.90 
  -6   0  10  161.88   30.20 
   6   0  10  147.69   26.40 
  -6   0 -10  236.68   33.90 
  -7   0 -10   -0.30   10.50 
  -7   0  10   -6.40   10.50 
  -8   0  10  522.85   62.19 
  -8   0 -10  433.56   53.19 
  -9   0  10  -15.30   16.20 
  -9   0 -10   15.00   18.10 
   0  -1  10  930.81   57.29 
   0   1  10 1015.50   59.49 
  -1   1  10  256.87   30.50 
   1  -1  10  257.27   31.00 
   1   1  10  254.17   31.00 
  -1  -1  10  266.97   31.70 
  -2  -1 -10  449.26   34.50 
  -2   1  10  410.26   33.50 
   2  -1  10  431.36   35.50 
  -2  -1  10  433.96   35.20 
  -2   1 -10  399.96   31.50 
   2   1  10  466.85   36.20 
  -3  -1 -10  178.68   25.70 
   3  -1  10  182.68   26.80 
  -3   1  10  158.18   24.20 
   3   1  10  194.58   28.60 
  -3  -1  10  152.58   24.20 
  -3   1 -10  220.68   25.60 
  -3   1 -10  228.88   27.40 
  -3  -1  10  198.78   26.70 
  -4   1  10   99.89   19.90 
  -4   1  10  127.89   23.70 
   4  -1  10  133.59   23.60 
  -4  -1 -10  128.49   23.30 
  -4  -1  10  103.39   20.60 
  -4   1 -10  107.79   20.90 
  -4  -1  10  121.69   22.00 
   4   1  10   98.69   20.80 
  -5  -1 -10   20.10   11.10 
  -5   1  10   64.59   16.80 
  -5   1  10   49.50   17.30 
   5  -1  10   41.00   15.30 
   5   1  10   52.89   16.10 
  -5   1 -10   55.69   16.50 
  -5  -1  10   48.40   15.10 
  -5  -1  10   44.90   16.70 
  -6  -1 -10  124.79   25.90 
   6  -1  10  194.78   29.30 
  -6   1  10  128.69   26.90 
  -6   1 -10  112.59   22.90 
  -6  -1  10  113.19   25.60 
   6   1  10  112.99   23.30 
  -7  -1 -10   61.69   20.60 
  -7   1  10   52.99   21.90 
  -7  -1  10   63.29   22.40 
  -7   1 -10   55.59   19.70 
  -8   1  10   66.69   24.80 
  -8  -1 -10   78.69   23.40 
  -8  -1  10  115.49   29.20 
  -8   1 -10   82.99   23.40 
  -9  -1 -10   -4.80   13.90 
  -9   1  10   -1.20   16.10 
  -9  -1  10    4.40   16.80 
  -9   1 -10    3.60   12.20 
   0  -2  10  277.37   31.80 
   0   2  10  318.07   35.70 
   1  -2  10   12.50    8.70 
  -1   2  10   22.50   10.30 
  -1  -2  10   14.50    9.30 
   1   2  10   27.70   10.40 
  -2  -2 -10  467.95   36.00 
  -2   2  10  455.35   35.90 
   2  -2  10  466.65   36.20 
   2   2  10  476.65   38.30 
  -2  -2  10  451.55   36.80 
  -2   2 -10  400.66   31.90 
  -2   2 -10  474.35   35.10 
   3  -2  10   -2.20    4.70 
  -3   2  10    5.60    6.80 
  -3  -2 -10   -1.10    6.60 
  -3  -2  10    5.90    6.40 
  -3  -2  10    0.30    7.50 
   3   2  10   -3.80    5.50 
  -3   2 -10    3.80    7.20 
  -3   2 -10    1.80    6.80 
  -4   2  10  500.75   50.09 
  -4   2  10  573.94   40.80 
   4  -2  10  590.04   41.90 
  -4  -2 -10  611.34   44.00 
   4   2  10  514.85   42.10 
  -4  -2  10  457.45   39.70 
  -4  -2  10  577.94   41.80 
  -4   2 -10  548.35   39.40 
  -4   2 -10  596.94   41.00 
   5  -2  10    9.20    9.60 
  -5   2  10   11.10   10.50 
  -5   2  10   11.10   10.10 
  -5  -2 -10    2.40    8.40 
  -5  -2  10   17.30   12.10 
   5   2  10    6.00    9.00 
  -5  -2  10   15.50   11.50 
  -5   2 -10   21.90   11.40 
  -5   2 -10   14.70   10.00 
  -6   2  10  480.85   53.19 
  -6  -2 -10  393.96   44.50 
  -6  -2  10  445.36   46.70 
  -6   2 -10  516.85   42.00 
  -6  -2  10  465.85   51.59 
   6   2  10  522.75   43.50 
  -7   2  10   -1.10   14.00 
  -7  -2 -10   -0.70    9.00 
  -7   2 -10   -1.60   11.40 
  -7  -2  10   -5.10    9.50 
  -8  -2 -10   21.70   15.10 
  -8   2  10   18.80   17.10 
  -8  -2  10   36.20   21.10 
  -8   2 -10   17.10   14.70 
  -9  -2 -10   32.90   18.80 
  -9   2  10    3.50   19.60 
  -9   2 -10    1.20   13.60 
  -9  -2  10   23.60   21.30 
   0  -3  10  569.04   41.60 
   0   3  10  559.84   41.90 
  -1   3  10   60.29   16.40 
   1  -3  10   74.29   16.80 
   1   3  10   70.49   17.00 
  -1  -3  10   71.09   17.20 
   2  -3  10  426.46   35.10 
  -2   3  10  397.86   33.40 
  -2   3 -10  407.56   33.50 
   2   3  10  385.06   40.90 
  -2  -3  10  387.16   40.60 
   3  -3  10  269.97   32.80 
  -3   3  10  334.47   35.10 
  -3  -3 -10  315.77   35.00 
  -3  -3  10  355.76   39.40 
   3   3  10  292.27   35.70 
  -3   3 -10  325.27   31.70 
  -3  -3  10  258.27   29.70 
  -3   3 -10  310.97   34.90 
  -4   3  10   50.59   17.00 
   4  -3  10   51.89   15.90 
  -4   3  10   29.10   12.40 
  -4  -3 -10   62.69   17.10 
  -4  -3  10   16.00   10.30 
   4   3  10   30.70   15.30 
  -4   3 -10   27.00   12.10 
  -4   3 -10   17.00    9.20 
  -4  -3  10   34.30   13.60 
  -5   3  10   69.59   19.80 
   5  -3  10   78.99   19.80 
  -5  -3 -10   93.39   21.10 
   5   3  10   78.79   20.80 
  -5  -3  10  112.89   23.40 
  -5  -3  10   72.39   19.30 
  -5   3 -10  108.19   22.10 
  -5   3 -10  104.09   20.00 
  -6   3  10   49.60   18.50 
  -6  -3 -10   80.09   20.40 
  -6  -3  10   59.89   19.80 
  -6   3 -10  102.99   22.60 
  -6  -3  10   95.29   22.80 
   6   3  10   69.69   19.80 
  -7   3  10   87.59   27.10 
  -7  -3 -10   38.70   16.80 
  -7  -3  10   91.39   25.70 
   7   3  10   93.69   24.70 
  -7   3 -10   50.99   19.60 
  -8   3  10  114.89   32.50 
  -8  -3 -10  105.19   27.80 
  -8  -3  10  106.89   30.00 
  -8   3 -10  177.88   32.60 
  -9   3  10   24.90   21.50 
  -9  -3 -10   -0.20   15.10 
  -9  -3  10   -7.50   17.50 
  -9   3 -10   -2.60   15.60 
   0  -4  10 1045.60   62.99 
   0   4  10 1085.49   63.89 
  -1   4  10   82.59   17.90 
   1  -4  10   36.70   12.50 
  -1   4 -10   53.19   15.60 
  -1  -4  10   81.89   18.60 
   1   4  10   40.60   13.70 
   2  -4  10  170.68   25.30 
  -2   4  10  154.38   23.40 
  -2   4 -10  131.69   24.10 
   2   4  10   97.59   20.20 
  -2  -4  10  115.89   21.60 
  -3  -4 -10  101.69   21.00 
  -3   4  10   87.99   17.90 
   3  -4  10   80.89   17.80 
  -3   4 -10   85.29   18.80 
  -3  -4  10  125.09   23.30 
  -3   4 -10  108.69   18.00 
  -3  -4  10  107.99   18.20 
   3   4  10  127.69   24.10 
   4  -4  10   93.29   20.00 
  -4  -4 -10   96.69   21.40 
  -4   4  10   66.69   16.80 
  -4   4  10  102.59   21.60 
   4   4  10   68.39   19.30 
  -4   4 -10  110.09   21.70 
  -4   4 -10   82.19   16.80 
  -4  -4  10  102.69   19.70 
  -4  -4  10   85.79   21.60 
   5  -4  10   34.60   14.30 
  -5   4  10   21.20   12.60 
  -5  -4 -10   24.20   13.20 
  -5   4 -10   45.90   16.50 
  -5  -4  10   60.79   19.70 
  -5   4 -10   41.40   14.10 
   5   4  10   98.69   23.00 
  -5  -4  10   10.60   12.10 
  -6  -4 -10   13.80   11.70 
  -6   4  10   76.19   23.40 
  -6   4 -10   54.89   18.20 
  -6  -4  10   72.49   21.50 
   6   4  10   54.59   19.60 
  -6   4 -10   79.89   20.60 
  -6  -4  10   81.69   21.30 
  -7   4  10    9.10   15.40 
  -7  -4 -10   11.40   12.60 
  -7   4 -10   -5.40   11.40 
   7   4  10   24.80   17.70 
  -7  -4  10   23.50   16.40 
  -8   4  10  299.97   49.10 
  -8  -4 -10  256.97   41.10 
  -8   4 -10  252.97   39.60 
  -8  -4  10  337.27   47.60 
  -9  -4 -10    9.80   16.00 
  -9   4  10   16.40   20.10 
  -9  -4  10    5.80   19.00 
  -9   4 -10   14.90   18.90 
   0  -5  10  182.88   27.70 
   0   5  10  209.38   29.00 
  -1   5  10   -2.70    5.80 
   1  -5  10    8.60    9.20 
  -1  -5  10   -4.60    5.40 
   1   5  10    6.70    7.80 
  -1   5 -10   -1.60    8.00 
  -2   5  10  216.28   28.90 
   2  -5  10  191.48   27.70 
  -2  -5  10  189.68   29.30 
  -2   5 -10  254.67   32.80 
   2   5  10  213.58   32.00 
  -3  -5 -10  417.86   43.40 
   3  -5  10  369.66   39.30 
  -3   5  10  320.07   33.90 
   3   5  10  388.96   44.70 
  -3  -5  10  302.97   38.60 
  -3   5 -10  301.77   36.20 
  -4   5  10  252.17   35.40 
  -4   5  10  196.18   26.90 
  -4  -5 -10  244.78   34.50 
   4  -5  10  178.38   27.30 
  -4   5 -10  200.28   29.50 
   4   5  10  231.08   35.90 
  -4  -5  10  222.88   33.30 
  -5   5  10   82.39   21.10 
  -5  -5 -10   90.49   22.50 
   5   5  10   82.89   21.60 
  -5   5 -10   89.79   21.80 
  -5  -5  10  110.59   24.90 
  -6   5  10   41.80   18.30 
  -6  -5 -10   60.19   20.20 
  -6  -5  10   49.80   20.00 
  -6   5 -10   69.49   20.00 
   6   5  10   43.60   19.30 
  -7   5  10   33.40   17.90 
  -7  -5 -10   18.30   15.50 
   7   5  10   27.30   17.20 
  -8  -5 -10   81.59   25.40 
  -8   5  10   50.99   22.50 
  -9  -5 -10   11.60   17.20 
  -9   5  10   19.90   20.50 
   0   6 -10  508.55   42.50 
   0  -6  10  518.55   42.30 
   0   6  10  588.24   43.90 
  -1   6  10   49.10   15.20 
   1  -6  10   52.89   15.20 
   1   6  10    9.50    9.10 
  -1  -6  10   55.29   16.50 
  -1   6 -10   40.40   14.80 
   2  -6  10  268.97   33.80 
  -2   6  10  264.07   32.50 
   2   6  10  243.18   35.00 
  -2   6 -10  230.48   32.40 
  -2  -6  10  237.68   33.70 
   3  -6  10   20.90   11.50 
  -3   6  10   14.00   10.30 
  -3  -6 -10    9.50    9.90 
  -3   6 -10    2.80    7.60 
   3   6  10    8.90   11.00 
  -3  -6  10   12.50    9.60 
  -4  -6 -10  214.38   32.20 
  -4   6  10  167.98   29.40 
   4  -6  10  148.19   24.30 
  -4   6 -10  178.18   31.00 
   4   6  10  175.58   32.40 
  -4  -6  10  171.28   30.10 
  -5  -6 -10   94.29   22.90 
  -5   6  10   70.89   20.60 
  -5  -6  10  103.39   24.10 
  -5   6 -10   96.99   23.30 
   5   6  10  105.89   26.30 
  -6  -6 -10  144.99   31.10 
  -6   6  10  159.68   33.00 
  -6  -6  10  219.58   36.80 
  -6   6 -10  133.49   28.30 
   6   6  10  208.28   37.90 
  -7   6  10   72.79   25.80 
  -7  -6 -10   72.39   22.20 
  -7   6 -10   57.69   21.00 
   7   6  10   75.29   24.50 
  -7  -6  10   67.49   25.00 
  -8   6  10   19.00   20.40 
  -8  -6 -10   -6.60   10.30 
   0   7  10  602.84   46.70 
   0  -7  10  586.54   46.70 
   0   7 -10  599.24   46.80 
   1  -7  10   22.90   11.50 
  -1   7  10   64.79   17.10 
  -1   7 -10   31.90   14.20 
   1   7  10   51.89   16.80 
  -1  -7  10  100.69   22.80 
  -2   7  10  203.18   29.30 
   2  -7  10  186.58   28.90 
   2   7  10  204.08   33.80 
  -2   7 -10  215.98   33.20 
  -2  -7  10  256.47   35.60 
   3  -7  10  218.48   30.80 
  -3   7  10  154.78   24.60 
   3   7  10  193.58   32.70 
  -3  -7  10  207.88   33.30 
  -3   7 -10  121.19   24.10 
  -4   7  10   -7.50    9.30 
   4  -7  10    9.90   10.30 
  -4  -7 -10    8.70   10.70 
  -4  -7  10    9.80   12.70 
  -4   7 -10   -0.30    9.90 
   4   7  10    3.80   11.80 
  -5   7  10   71.89   21.80 
  -5  -7 -10   89.59   23.30 
   5   7  10  134.19   30.80 
  -5   7 -10  119.69   26.50 
  -5  -7  10   99.09   25.40 
  -6  -7 -10   20.60   15.50 
  -6   7  10   45.30   19.60 
  -6  -7  10   36.20   20.10 
  -6   7 -10   25.90   17.00 
   6   7  10   33.10   20.90 
  -7  -7 -10   49.10   19.10 
  -7   7  10   95.09   27.60 
  -7   7 -10   89.99   25.90 
  -7  -7  10   97.59   29.20 
   7   7  10   48.10   23.60 
  -8  -7 -10   39.40   18.70 
  -8   7  10   45.80   25.90 
   8   7  10   55.09   36.50 
   0   8  10  173.18   30.20 
   0   8 -10  140.99   26.70 
   0  -8  10  139.59   25.60 
   1  -8  10  118.59   24.20 
  -1   8  10  116.09   23.10 
  -1  -8  10   68.59   19.80 
  -1   8 -10   87.59   20.20 
   1   8  10  100.79   23.90 
   2  -8  10   47.30   16.90 
  -2   8  10   10.20    9.70 
  -2  -8  10   41.00   15.80 
   2   8  10   26.50   13.90 
  -2   8 -10   38.40   17.40 
   3  -8  10  138.99   25.40 
  -3   8  10  109.49   22.30 
  -3  -8  10  110.49   26.20 
  -3   8 -10  142.29   28.10 
   3   8  10  176.98   33.10 
  -4  -8 -10   14.40   11.20 
  -4   8  10    2.30   11.60 
   4  -8  10   18.80   13.00 
  -4   8 -10    3.20   11.40 
   4   8  10   10.50   13.80 
  -4  -8  10   37.80   17.50 
  -5   8  10    8.20   11.90 
  -5  -8 -10   11.40   11.90 
  -5   8 -10   20.90   15.40 
  -5  -8  10    2.20   11.80 
   5   8  10   16.40   17.10 
  -6   8  10   -3.60   13.50 
  -6  -8 -10   -3.50    8.80 
  -6   8 -10   13.30   13.40 
  -6  -8  10    6.00   15.90 
   6   8  10   -7.80   14.90 
  -7  -8 -10   30.20   18.20 
  -7   8  10   -3.10   15.50 
  -7  -8  10   -7.00   18.70 
  -7   8 -10    8.60   16.10 
   7   8  10    4.20   19.10 
  -8  -8 -10   99.49   29.20 
   0   9  10   -9.70    8.70 
   0   9 -10   25.30   12.90 
   0  -9  10    8.20   10.70 
   1  -9  10   36.60   15.70 
   1   9 -10   26.50   13.90 
  -1   9  10   13.10   10.90 
   1   9  10   20.60   12.30 
  -1   9 -10    8.50   12.20 
  -1  -9  10   34.50   16.60 
   2  -9  10   16.70   12.60 
  -2   9  10   24.80   13.20 
  -2  -9 -10   67.09   21.80 
   2   9  10   44.50   18.10 
  -2  -9  10    8.10   11.00 
  -2   9 -10   52.29   19.70 
   3  -9  10   47.50   16.90 
  -3   9  10   81.19   20.00 
  -3  -9 -10   54.59   19.70 
  -3   9 -10   64.69   20.20 
  -3  -9  10   51.39   18.80 
   3   9  10   34.90   17.90 
  -4  -9 -10  110.59   26.30 
  -4   9  10   54.19   18.60 
  -4  -9 -10   74.19   24.60 
  -4  -9  10   33.20   18.30 
   4   9  10   51.19   21.70 
  -4   9 -10   79.39   24.20 
  -5   9  10  132.59   28.10 
  -5  -9 -10   77.09   26.20 
  -5  -9 -10   64.89   19.70 
   5   9  10   77.29   26.30 
  -5  -9  10   46.00   20.30 
  -5   9 -10   87.19   25.40 
  -6  -9 -10    8.60   14.60 
  -6  -9 -10    1.70   13.90 
  -6   9  10   35.90   18.40 
  -6  -9  10   19.80   18.30 
   6   9  10   25.60   18.40 
  -6   9 -10   19.70   16.40 
  -7   9  10   15.60   17.00 
  -7  -9 -10   15.50   16.00 
   7   9  10   -3.20   17.70 
  -7  -9  10   -1.40   19.50 
  -7   9 -10    3.50   17.00 
   0  10  10  112.29   25.40 
   0  10 -10   89.79   22.80 
   0 -10  10  108.69   25.80 
   1 -10  10   16.20   13.40 
  -1  10  10    1.90    9.40 
   1  10 -10    5.40   12.00 
  -1 -10 -10   -1.40   10.80 
   1  10  10    4.70   11.10 
  -1 -10  10   18.70   13.90 
  -1  10 -10   22.80   15.00 
  -2 -10 -10   28.10   15.40 
   2 -10  10    6.00   11.10 
  -2  10  10   11.90   11.90 
  -2 -10  10   15.40   14.30 
  -2  10 -10   10.10   11.50 
   3 -10  10    5.10   13.00 
  -3 -10 -10    4.20   11.80 
  -3  10 -10   -3.70   12.00 
  -3 -10  10   18.10   15.80 
  -4 -10 -10   26.70   16.90 
  -4  10  10   23.20   15.60 
  -4  10 -10   46.30   20.20 
  -4 -10  10   80.99   25.30 
  -5 -10 -10   59.49   24.10 
  -5 -10 -10   72.09   22.40 
  -5  10  10   73.29   24.00 
  -5  10 -10   62.89   24.50 
  -5 -10  10   86.39   28.00 
  -6 -10 -10   -7.10   12.20 
  -6  10  10   10.30   16.50 
  -6 -10 -10   22.50   20.40 
  -6 -10  10   21.30   21.60 
   6  10  10   26.00   21.70 
  -6  10 -10   34.00   20.10 
   0  11 -10  164.78   31.60 
   0 -11  10  100.99   25.80 
   0  11  10  198.58   34.50 
   1  11 -10   34.50   16.20 
   1 -11  10   50.29   19.20 
  -1 -11 -10   41.30   19.00 
  -1  11  10    4.80   12.50 
  -1  11 -10   18.80   14.70 
  -1 -11  10   52.29   19.90 
  -2 -11 -10    5.80   13.80 
   2 -11  10   -1.20    9.60 
  -2  11  10   -0.90   10.60 
  -2  11 -10    3.30   10.20 
  -2 -11  10    5.10   12.70 
   3 -11  10  140.39   29.10 
  -3 -11 -10   93.89   26.80 
  -3 -11  10  154.98   33.30 
  -3  11 -10  110.09   27.50 
  -4  11  10   49.90   18.70 
  -4 -11 -10   47.60   20.70 
  -4  11 -10    7.50   14.50 
  -4 -11  10   24.60   17.70 
  -5  11  10  102.69   26.80 
  -5 -11 -10   23.30   18.80 
  -5 -11  10    4.10   17.30 
  -5  11 -10   30.10   21.30 
  -6 -11 -10   11.70   16.70 
  -6  11  10   31.20   19.90 
  -6 -11 -10   -0.10   15.50 
  -6 -11  10    3.00   17.70 
  -6  11 -10    2.90   17.60 
   0 -12  10    4.80   13.90 
   0  12  10   -1.80   11.40 
   0 -12 -10   -0.40   11.30 
   0  12 -10   -8.80    8.90 
  -1 -12 -10   48.10   20.30 
  -1  12  10   47.50   19.20 
   1  12 -10   48.40   20.30 
   1 -12  10   61.59   22.80 
  -1  12 -10   39.30   18.20 
  -1 -12  10   56.09   20.10 
   2 -12  10    1.40   15.50 
  -2  12  10  -10.80   11.90 
  -2 -12 -10    8.60   14.10 
  -2  12 -10    4.60   15.10 
  -2 -12  10   31.10   20.50 
  -3 -12 -10  170.68   35.70 
  -3  12 -10  100.29   28.20 
  -3 -12  10  144.89   35.80 
  -4  12  10   38.40   20.00 
  -4 -12 -10   25.40   18.00 
  -4 -12  10   25.50   21.00 
  -4  12 -10   21.20   18.00 
  -5 -12 -10   -1.10   15.60 
  -5  12  10   17.00   18.40 
  -5  12 -10   -4.10   17.40 
  -5 -12  10   12.70   17.50 
   0  13 -10   61.09   23.20 
   0 -13  10   57.59   23.50 
   0 -13 -10   54.69   22.60 
   1 -13  10   16.10   16.00 
  -1 -13 -10   -7.20   12.40 
   1  13 -10   14.30   16.10 
  -1  13  10   23.20   18.00 
  -1 -13  10   -8.60   14.40 
  -1  13 -10    0.20   14.40 
   2 -13  10   12.00   17.40 
  -2 -13 -10   16.40   16.60 
  -2 -13  10   26.80   20.10 
  -2  13 -10   17.30   18.30 
  -3 -13 -10   18.40   20.20 
  -3  13 -10   11.20   14.30 
  -3 -13  10   25.00   18.80 
   0 -14 -10   19.70   18.40 
   0 -14  10    6.70   17.10 
   0  14 -10    9.70   13.70 
   1  14 -10   14.00   16.70 
   1 -14  10   11.00   18.70 
  -1  14  10   11.80   15.30 
  -1 -14 -10    0.20   15.00 
  -1  14 -10   -3.00   14.50 
  -1 -14  10   16.90   19.00 
   0   0  11    3.80    6.50 
   1   0  11   -2.30    5.20 
  -1   0  11    1.00    7.00 
   2   0  11  585.44   43.90 
  -2   0  11  474.25   39.60 
   3   0  11   -5.80    8.40 
  -3   0  11   -2.00    6.70 
  -3   0 -11    1.30    7.60 
  -4   0 -11  245.68   30.80 
  -4   0  11  164.68   25.90 
  -4   0  11  176.48   27.20 
   4   0  11  167.48   27.70 
   5   0  11   -5.00    9.20 
  -5   0  11    3.60    9.60 
  -5   0 -11   -1.80    7.30 
  -5   0  11   -5.80    9.20 
  -6   0 -11   -2.90    9.10 
  -6   0  11    8.00   12.40 
   6   0  11   15.40   13.70 
  -7   0  11    1.30   11.10 
  -7   0 -11    4.20    9.70 
  -8   0 -11   22.00   14.70 
  -8   0  11    4.70   16.00 
  -9   0 -11   -5.90   15.00 
  -9   0  11   -8.00   19.30 
   0  -1  11    5.40    7.60 
   0   1  11   -5.20    6.20 
  -1   1  11  165.08   25.70 
   1  -1  11  148.49   24.00 
  -1  -1  11  229.88   31.00 
   1   1  11  201.08   30.10 
  -2   1  11  129.19   22.90 
   2  -1  11  116.59   22.40 
   2   1  11  121.49   22.30 
  -2  -1  11   62.49   16.30 
   3  -1  11   28.60   14.00 
  -3   1  11   18.70   10.80 
  -3  -1 -11   10.70    9.20 
   3   1  11   20.70   11.70 
  -3   1 -11   31.20   11.90 
  -3  -1  11   35.20   12.80 
  -4  -1 -11  258.77   32.00 
  -4   1  11  239.48   31.50 
   4  -1  11  302.07   37.10 
  -4   1  11  218.28   33.00 
   4   1  11  264.07   34.60 
  -4   1 -11  217.78   29.20 
  -4  -1  11  249.48   32.10 
  -4  -1  11  265.27   34.50 
   5  -1  11  113.09   23.10 
  -5   1  11  120.09   25.00 
  -5   1  11  112.19   21.70 
  -5  -1 -11  159.38   27.50 
  -5   1 -11   84.99   20.00 
   5   1  11  114.09   23.90 
  -5  -1  11   79.99   20.50 
  -5  -1  11   89.79   20.20 
  -6   1  11  134.39   29.40 
   6  -1  11  143.19   27.30 
  -6  -1 -11   79.59   21.10 
  -6  -1  11   55.29   19.40 
  -6   1 -11  104.69   22.60 
   6   1  11   91.29   22.30 
  -7  -1 -11   15.00   13.90 
  -7   1  11   -2.50   11.90 
  -7   1 -11    8.40   11.30 
  -7  -1  11  -11.20   11.50 
  -8  -1 -11   16.40   14.30 
  -8   1  11   48.70   22.90 
  -8   1 -11   41.70   18.50 
  -8  -1  11   31.60   19.70 
  -9  -1 -11   41.40   21.80 
  -9   1  11   37.30   23.70 
  -9  -1  11   42.00   24.20 
  -9   1 -11   43.00   21.60 
   0  -2  11    6.80    7.50 
   0   2  11   -1.70    6.50 
  -1   2  11   36.10   13.70 
   1  -2  11   30.80   12.30 
  -1  -2  11   23.20   11.00 
   1   2  11   31.50   12.10 
  -2   2  11   42.30   14.00 
   2  -2  11   72.09   17.50 
  -2  -2  11   73.29   18.50 
   2   2  11   44.60   14.50 
  -3   2  11    0.10    7.50 
  -3  -2 -11   11.60    8.00 
   3  -2  11    3.00    7.60 
  -3   2 -11    2.70    8.60 
  -3  -2  11    4.00    8.00 
  -3   2 -11   -1.80    6.70 
   3   2  11   -1.00    7.70 
  -3  -2  11   11.60    9.50 
   4  -2  11   40.00   13.00 
  -4   2  11   58.99   17.60 
  -4   2  11   35.50   13.50 
  -4  -2 -11   64.79   18.40 
  -4   2 -11   62.69   16.60 
   4   2  11   62.09   18.40 
  -4   2 -11   35.10   13.60 
  -4  -2  11   26.50   12.70 
  -4  -2  11   58.19   16.70 
  -5   2  11  168.98   37.80 
  -5  -2 -11  105.39   24.10 
  -5   2  11   88.69   23.60 
   5  -2  11  147.79   25.50 
  -5  -2  11   89.99   20.40 
  -5  -2  11   72.29   20.40 
  -5   2 -11   46.10   15.80 
   5   2  11  171.58   30.60 
  -6   2  11  401.26   49.99 
  -6  -2 -11  275.27   39.10 
  -6  -2  11  261.47   37.60 
  -6   2 -11  302.07   38.30 
   6   2  11  382.96   45.20 
  -6  -2  11  295.47   40.10 
  -7  -2 -11   -0.80    9.90 
  -7   2  11  -10.60   11.00 
  -7  -2  11    5.60   16.20 
  -7   2 -11   11.70   13.20 
  -8   2  11   33.50   19.80 
  -8  -2 -11   17.90   13.80 
  -8  -2  11   63.29   25.70 
  -8   2 -11   29.70   19.30 
  -9   2  11   -6.00   15.90 
  -9  -2 -11   -3.90   14.40 
  -9   2 -11    3.20   15.70 
  -9  -2  11   18.70   21.00 
   0   3  11   -4.10    5.60 
   0  -3  11   -0.80    6.30 
   1  -3  11  100.89   21.00 
  -1   3  11   72.39   17.70 
   1   3  11   62.19   17.10 
  -1  -3  11   75.79   18.10 
   2  -3  11   72.99   17.70 
  -2   3  11   93.19   20.00 
   2   3  11   58.19   17.10 
  -2   3 -11   89.59   19.40 
  -2  -3  11   82.89   19.20 
  -3  -3 -11   98.09   21.00 
  -3   3  11  145.29   24.40 
   3  -3  11  147.39   25.60 
  -3   3 -11  160.68   26.00 
  -3  -3  11  151.08   26.30 
  -3  -3  11  161.98   23.70 
   3   3  11  177.28   28.90 
  -3   3 -11  118.89   19.80 
  -4   3  11  184.48   26.90 
   4  -3  11  169.48   27.80 
  -4   3  11  172.48   29.30 
  -4  -3 -11  195.28   29.00 
   4   3  11  169.68   28.80 
  -4   3 -11  226.88   30.50 
  -4   3 -11  178.58   24.90 
  -4  -3  11  160.28   26.60 
  -4  -3  11  212.98   32.40 
  -5  -3 -11  133.89   25.70 
  -5   3  11  110.89   25.30 
   5  -3  11  146.89   26.10 
  -5   3 -11  136.79   25.00 
  -5  -3  11  123.09   24.10 
  -5  -3  11  139.59   27.60 
  -5   3 -11  197.08   28.50 
   5   3  11  102.69   24.60 
  -6   3  11  193.18   35.70 
  -6  -3 -11  136.79   28.30 
  -6  -3  11  143.09   28.00 
  -6  -3  11  189.28   33.40 
   6   3  11  175.38   32.00 
  -6   3 -11  183.18   29.30 
  -7   3  11   17.50   18.40 
  -7  -3 -11   23.80   15.20 
  -7  -3  11   18.40   15.80 
  -7   3 -11    2.80   11.80 
   7   3  11   23.20   15.60 
  -8  -3 -11   -4.50   11.40 
  -8   3  11   -7.00   11.80 
  -8   3 -11   -2.80   14.50 
  -8  -3  11    1.70   16.20 
  -9  -3 -11   68.29   23.30 
  -9   3  11   68.99   30.00 
  -9  -3  11   43.80   25.20 
  -9   3 -11   52.29   24.40 
   0   4  11   -2.90    7.10 
   0  -4  11   -1.90    7.50 
   1  -4  11   83.69   20.20 
  -1   4  11  113.89   21.80 
   1   4  11   81.49   20.10 
  -1  -4  11  121.19   22.60 
   2  -4  11  513.85   40.30 
  -2   4  11  409.46   41.90 
   2   4  11  448.16   46.70 
  -2   4 -11  413.56   43.20 
  -2  -4  11  428.96   45.50 
  -3   4  11   95.89   19.10 
   3  -4  11  101.29   20.50 
  -3  -4 -11  100.09   22.30 
  -3  -4  11   66.39   19.40 
   3   4  11  120.89   26.10 
  -3  -4  11   74.19   16.80 
  -3   4 -11   62.19   18.30 
  -3   4 -11   81.99   16.30 
   4  -4  11  205.68   30.90 
  -4  -4 -11  247.18   34.70 
  -4   4  11  246.08   31.40 
  -4   4  11  219.58   33.80 
   4   4  11  201.68   33.90 
  -4   4 -11  214.88   32.00 
  -4  -4  11  189.48   27.30 
  -4   4 -11  256.07   30.20 
  -4  -4  11  214.58   32.20 
   5  -4  11    2.40   10.10 
  -5   4  11    5.00   11.40 
  -5  -4 -11   -1.30    7.60 
  -5  -4  11   12.30   12.40 
   5   4  11    1.50   11.00 
  -5   4 -11   -4.30    9.30 
  -5   4 -11   -3.70    9.50 
  -5  -4  11   15.10   12.90 
  -6   4  11   15.40   14.20 
  -6  -4 -11   -0.10    9.60 
  -6  -4  11    2.40   12.90 
  -6  -4  11    0.10   13.10 
   6   4  11   17.90   14.70 
  -6   4 -11   15.70   13.60 
  -7  -4 -11   29.40   16.70 
  -7   4  11   60.49   22.10 
  -7   4 -11   79.79   23.70 
  -7  -4  11   69.29   23.30 
   7   4  11   97.19   27.20 
  -8   4  11   39.10   23.40 
  -8  -4 -11   14.90   15.70 
  -8   4 -11   32.00   20.50 
  -8  -4  11   23.70   21.40 
   0   5  11    4.40    8.20 
   0  -5  11   -0.70    6.30 
  -1   5  11  294.77   35.60 
   1  -5  11  373.36   41.80 
  -1  -5  11  300.67   37.50 
  -1   5 -11  253.67   33.90 
   1   5  11  312.57   39.70 
  -2   5  11   43.70   15.30 
   2  -5  11   70.99   18.10 
  -2  -5  11   71.89   19.20 
   2   5  11   61.79   17.80 
  -2   5 -11   31.90   14.10 
  -3  -5 -11   17.30   11.00 
  -3   5  11   13.50   10.10 
   3  -5  11   17.80   11.80 
   3   5  11   10.40   11.70 
  -3  -5  11   25.70   13.20 
  -3   5 -11   17.10   11.90 
  -4  -5 -11  154.88   28.80 
  -4   5  11  144.59   24.50 
   4  -5  11  224.88   32.20 
  -4   5  11  185.38   30.70 
  -4  -5  11  188.78   31.70 
  -4   5 -11  211.98   32.50 
   4   5  11  249.48   36.60 
  -5   5  11  233.18   36.70 
  -5  -5 -11  133.99   26.50 
  -5  -5  11  281.47   39.50 
  -5   5 -11  184.28   30.30 
   5   5  11  301.77   41.00 
  -6   5  11    6.00   14.20 
  -6  -5 -11    1.70   10.00 
  -6   5 -11   26.10   16.50 
   6   5  11   -3.20   14.60 
  -6  -5  11   53.59   22.30 
  -7  -5 -11   16.00   15.00 
  -7   5  11   17.90   15.80 
   7   5  11   19.20   17.60 
  -8   5  11   20.30   17.60 
  -8  -5 -11   10.50   16.50 
   0  -6  11    0.60    7.30 
   0   6  11   -0.30    8.50 
   1  -6  11  210.98   31.30 
  -1   6  11  300.47   37.20 
   1   6  11  222.08   33.10 
  -1   6 -11  196.78   30.90 
  -1  -6  11  271.27   36.90 
  -2   6  11    4.50    7.70 
   2  -6  11    5.50    9.10 
   2   6  11   -3.20    8.60 
  -2  -6  11    3.60    8.40 
  -2   6 -11    5.20   10.30 
  -3   6  11  140.09   24.20 
   3  -6  11  132.39   24.20 
  -3  -6  11  107.99   25.80 
   3   6  11  172.38   31.30 
  -3   6 -11   97.79   22.30 
  -4  -6 -11   23.80   13.40 
   4  -6  11   -2.80    8.50 
  -4   6  11   22.30   14.40 
  -4   6 -11   16.30   12.80 
  -4  -6  11   18.70   12.70 
   4   6  11   53.09   21.00 
  -5  -6 -11   60.89   21.20 
  -5   6  11  111.39   26.80 
  -5   6 -11   96.89   25.00 
  -5  -6  11  117.99   28.00 
   5   6  11  105.19   25.90 
  -6   6  11   93.19   26.20 
  -6  -6 -11   79.19   22.90 
  -6  -6  11   63.39   23.30 
  -6   6 -11   82.39   23.30 
   6   6  11  155.28   33.70 
  -7   6  11   27.40   17.70 
  -7  -6 -11   53.79   21.60 
  -7  -6  11   33.30   20.70 
   7   6  11   20.00   17.00 
  -8   6  11    6.30   19.50 
  -8  -6 -11   25.00   18.00 
   0  -7  11   -7.10    6.90 
   0   7  11    2.50    6.90 
   0   7 -11   -3.90    8.20 
   1  -7  11   29.90   14.10 
  -1   7  11   32.20   13.60 
  -1   7 -11   43.50   16.60 
  -1  -7  11   20.60   13.50 
   1   7  11   51.39   17.70 
   2  -7  11   22.70   13.50 
  -2   7  11    9.70   11.10 
  -2  -7  11   27.60   14.40 
   2   7  11   40.60   15.10 
  -2   7 -11    9.90   11.50 
   3  -7  11  203.28   31.10 
  -3   7  11  177.18   27.70 
  -3  -7  11  202.58   34.60 
   3   7  11  217.08   36.50 
  -3   7 -11  252.37   37.40 
  -4   7  11   62.39   19.60 
   4  -7  11   54.09   18.00 
  -4  -7 -11   52.59   19.30 
   4   7  11   87.39   24.90 
  -4  -7  11   51.29   19.00 
  -4   7 -11   60.19   20.00 
  -5  -7 -11   87.19   23.40 
  -5   7  11   69.19   23.90 
   5   7  11  106.29   27.70 
  -5  -7  11   57.29   21.70 
  -5   7 -11   85.19   23.80 
  -6  -7 -11  106.09   27.20 
  -6   7  11   44.70   19.70 
  -6  -7  11   73.79   24.50 
  -6   7 -11  111.19   28.20 
   6   7  11   63.49   24.30 
  -7  -7 -11   57.89   23.40 
  -7   7  11  109.49   28.60 
  -7  -7  11   86.29   29.80 
  -7   7 -11  122.29   31.30 
   7   7  11   78.39   26.80 
   0   8  11    0.30    7.00 
   0   8 -11   -2.60    9.30 
   0  -8  11   -6.10    7.90 
   1  -8  11  282.47   38.50 
  -1   8  11  203.58   30.90 
  -1   8 -11  205.98   33.00 
  -1  -8  11  195.58   33.20 
   1   8  11  207.88   34.70 
   2  -8  11  261.47   36.80 
  -2   8  11  313.97   39.30 
   2   8  11  226.18   38.30 
  -2  -8  11  291.57   41.20 
  -2   8 -11  230.88   36.70 
   3  -8  11   94.09   23.30 
  -3   8  11   46.60   16.40 
  -3   8 -11   80.19   21.80 
  -3  -8  11  110.49   26.30 
   3   8  11   81.39   24.00 
  -4   8  11   82.49   21.80 
   4  -8  11   79.79   21.80 
  -4  -8 -11   78.59   23.70 
   4   8  11   56.49   22.70 
  -4  -8  11   41.50   18.20 
  -4   8 -11   98.79   25.40 
  -5   8  11   27.40   16.70 
  -5  -8 -11   51.59   20.40 
  -5   8 -11   25.20   15.30 
  -5  -8  11   24.20   17.10 
   5   8  11   -3.90   13.40 
  -6   8  11   -4.10   14.00 
  -6  -8 -11   -4.00   12.90 
   6   8  11  -15.20   14.80 
  -6  -8  11   20.20   17.50 
  -6   8 -11   23.60   18.50 
  -7  -8 -11   15.10   13.90 
  -7   8  11   26.10   19.10 
   7   8  11    5.60   18.30 
  -7  -8  11   16.40   22.10 
  -7   8 -11   44.00   24.10 
   0  -9  11   -9.30   11.10 
   0   9  11   -2.10    8.20 
   0   9 -11   -1.30    8.70 
  -1   9  11  248.48   36.20 
   1  -9  11  264.87   37.30 
  -1   9 -11  272.57   39.70 
  -1  -9  11  206.38   35.10 
   1   9  11  201.18   35.90 
  -2   9  11  101.79   24.00 
   2  -9  11  111.59   24.10 
  -2  -9  11  142.59   30.60 
   2   9  11  114.09   28.40 
  -2   9 -11   85.29   24.30 
  -3   9  11   26.70   15.40 
   3  -9  11   45.20   16.40 
   3   9  11   24.50   18.00 
  -3  -9  11   22.60   16.00 
  -3   9 -11   31.00   15.90 
  -4   9  11   18.40   14.30 
  -4   9 -11   38.90   18.50 
   4   9  11   43.60   21.60 
  -4  -9  11   69.59   23.90 
  -5  -9 -11  177.38   34.60 
  -5   9  11  161.78   32.20 
   5   9  11  127.59   34.10 
  -5   9 -11  145.29   33.10 
  -5  -9  11   86.29   26.90 
  -6   9  11   35.10   19.20 
  -6  -9 -11    8.80   14.20 
   6   9  11   14.70   20.50 
  -6  -9  11    2.50   16.70 
  -6   9 -11   29.30   21.30 
  -7  -9 -11   52.89   22.60 
   0  10 -11   -5.40   10.70 
   0 -10  11    0.70   11.00 
   0  10  11    4.80   12.20 
  -1  10  11  228.88   35.90 
   1 -10  11  251.17   37.80 
  -1 -10  11  240.68   38.60 
  -1  10 -11  256.47   39.60 
   1  10  11  213.88   38.00 
   2 -10  11    1.10   13.80 
  -2  10  11   -1.50    9.90 
   2  10  11   11.80   12.90 
  -2  10 -11   11.10   14.00 
  -2 -10  11   -1.10    9.40 
   3 -10  11   88.09   23.40 
  -3  10 -11  123.89   29.30 
   3  10  11  118.19   28.80 
  -3 -10  11  108.49   27.60 
  -4  10  11    3.80   11.70 
   4  10  11   11.40   15.50 
  -4  10 -11   -4.40   14.50 
  -4 -10  11    0.90   14.50 
  -5  10  11   52.29   21.50 
  -5  10 -11   68.79   25.10 
   5  10  11   64.49   27.60 
  -5 -10  11   66.69   25.90 
  -6 -10 -11   59.19   23.50 
  -6  10  11   60.39   25.00 
   6  10  11   50.49   26.90 
  -6 -10  11   80.19   30.70 
  -6  10 -11   57.99   26.70 
   0  11  11   -4.30   12.40 
   0 -11  11    2.50   11.90 
   0  11 -11   -5.00   11.00 
   1 -11  11   24.10   15.70 
  -1  11  11   18.00   16.00 
  -1 -11  11   13.30   15.50 
  -1  11 -11   33.90   16.80 
   1  11  11   19.40   16.00 
  -2  11  11   32.30   17.50 
   2 -11  11    2.60   15.10 
   2  11  11    8.80   14.40 
  -2  11 -11   18.10   15.40 
  -2 -11  11   23.10   17.40 
   3 -11  11   86.59   25.20 
  -3  11 -11   95.99   27.40 
  -3 -11  11   60.39   25.10 
   3  11  11   86.49   24.60 
  -4  11  11   -7.40   11.90 
  -4 -11 -11    3.80   14.30 
   4  11  11    6.40   15.40 
  -4 -11  11   -1.10   13.80 
  -4  11 -11    9.50   15.90 
  -5  11  11   40.90   20.50 
  -5 -11  11   42.50   23.50 
   5  11  11   47.80   24.70 
  -5  11 -11   73.49   26.50 
   0  12  11   -2.30   14.10 
   0 -12  11    7.70   15.20 
   0  12 -11   -8.80   12.00 
   1  12 -11  166.08   34.20 
  -1  12  11   79.49   24.80 
   1 -12  11  104.79   27.40 
  -1 -12  11  115.49   29.50 
  -1  12 -11  111.39   29.10 
   1  12  11  118.09   29.90 
  -2  12  11   11.30   15.30 
  -2 -12 -11    3.90   14.50 
   2 -12  11   15.10   14.90 
   2  12  11   36.50   21.80 
  -2 -12  11   10.80   14.80 
  -2  12 -11   21.20   17.90 
  -3 -12 -11   63.49   25.70 
   3  12  11   49.50   24.90 
  -3 -12  11   25.40   19.90 
  -3  12 -11   55.29   23.40 
  -4  12  11    8.10   15.20 
  -4 -12 -11    1.90   16.30 
   4  12  11   18.10   21.90 
  -4  12 -11   30.00   20.40 
  -4 -12  11   20.30   20.50 
   0  13  11    8.20   14.10 
   0 -13  11    3.40   17.70 
   0  13 -11    1.60   15.20 
   1  13 -11   91.69   26.80 
   1 -13  11   97.99   29.10 
  -1  13  11   62.69   25.10 
  -1 -13  11   72.09   24.10 
   1  13  11   81.69   27.60 
  -1  13 -11   75.49   25.20 
   2 -13  11   32.60   21.00 
  -2 -13 -11   58.39   24.50 
  -2 -13  11   55.29   24.60 
  -2  13 -11   71.19   24.50 
   2  13  11   42.60   25.00 
   0   0  12  358.76   40.60 
   1   0  12    4.50    7.70 
  -1   0  12   -5.20    6.00 
  -2   0  12  124.79   24.50 
   2   0  12  132.79   24.10 
  -3   0  12   -5.10    5.40 
   3   0  12   -2.20    8.70 
  -3   0 -12   -2.00    7.60 
  -4   0  12  842.42   55.69 
   4   0  12  787.92   56.49 
  -4   0  12  758.82   53.79 
  -4   0 -12  704.53   51.09 
  -5   0  12    3.10    9.40 
   5   0  12   -2.80   10.40 
  -5   0  12    6.00   11.80 
  -5   0 -12    2.90    9.90 
   6   0  12  361.96   45.20 
  -6   0 -12  317.57   40.10 
  -6   0  12  253.77   40.90 
  -7   0 -12    7.60   12.90 
  -7   0  12   -2.20   13.90 
  -8   0  12   47.90   24.00 
  -8   0 -12   28.00   18.20 
   0  -1  12  697.43   51.29 
   0   1  12  740.63   52.69 
   1  -1  12  116.99   24.40 
  -1   1  12  141.49   25.40 
   1   1  12   92.69   21.50 
  -1  -1  12   96.39   21.10 
  -2   1  12  416.86   43.00 
   2  -1  12  429.96   45.60 
   2   1  12  420.16   46.90 
  -2  -1  12  370.06   42.00 
   3  -1  12  124.19   25.30 
  -3   1  12  157.38   26.30 
  -3  -1 -12  127.99   24.10 
  -3  -1  12  156.58   27.20 
   3   1  12  211.48   31.80 
  -3   1 -12  144.79   23.90 
  -4   1  12  170.78   28.60 
   4  -1  12  233.88   34.50 
  -4  -1 -12  234.08   31.80 
  -4   1  12  183.18   29.00 
  -4  -1  12  211.58   31.90 
  -4   1 -12  198.98   29.20 
   4   1  12  222.58   33.00 
  -4  -1  12  171.18   28.40 
  -5  -1 -12   12.30   10.20 
   5  -1  12    7.20   11.50 
  -5   1  12   10.60   11.00 
  -5   1  12   -8.50   10.80 
  -5   1 -12   11.00   11.00 
  -5  -1  12   11.80   11.90 
   5   1  12    8.70   11.00 
  -5  -1  12   16.00   14.50 
  -6  -1 -12   46.90   17.20 
  -6   1  12   58.89   20.90 
   6  -1  12   99.09   25.20 
  -6  -1  12   56.69   22.10 
  -6   1 -12   79.29   21.40 
   6   1  12   55.49   19.80 
  -7   1  12   12.40   16.60 
  -7  -1 -12   55.19   19.40 
  -7  -1  12  168.88   34.90 
  -7   1 -12  113.79   25.80 
  -8  -1 -12   13.30   14.40 
  -8   1  12   44.30   23.80 
  -8  -1  12   37.70   22.10 
  -8   1 -12   36.00   18.90 
   0   2  12  529.45   43.70 
   0  -2  12  643.14   47.80 
  -1   2  12   12.60   10.30 
   1  -2  12   -7.10    5.40 
   1   2  12   -0.90    7.20 
  -1  -2  12    4.70    8.10 
   2  -2  12  145.49   26.40 
  -2   2  12  129.59   24.50 
  -2  -2  12  142.29   26.10 
   2   2  12  144.69   26.30 
  -3  -2 -12   28.80   14.10 
   3  -2  12   30.50   13.20 
  -3   2  12   24.00   11.50 
  -3   2 -12   42.50   14.30 
  -3  -2  12   26.40   13.00 
  -3  -2  12   25.40   12.50 
   3   2  12    6.70    8.70 
  -4   2  12   15.90   12.70 
   4  -2  12    9.10   11.40 
  -4  -2 -12   45.20   16.50 
  -4   2  12   17.20   11.10 
  -4   2 -12   18.70   12.70 
  -4   2 -12   25.50   11.90 
  -4  -2  12    3.20   10.30 
  -4  -2  12   10.50   11.20 
   4   2  12    7.30   11.30 
  -5  -2 -12   -2.10    9.50 
  -5   2  12   -7.30    9.80 
   5  -2  12   -3.50    9.80 
   5   2  12   -1.10   10.20 
  -5   2 -12   -2.30    9.70 
  -5  -2  12    6.20   11.60 
  -5  -2  12    4.90   11.70 
  -6   2  12   86.69   25.50 
  -6  -2 -12   63.49   20.50 
   6   2  12  101.19   26.30 
  -6  -2  12   74.99   24.40 
  -6   2 -12   94.79   23.00 
  -6  -2  12  131.99   32.10 
  -7  -2 -12    4.00    9.60 
  -7   2  12   15.10   15.60 
  -7   2 -12    0.40   10.80 
  -7  -2  12   -5.00   12.50 
  -8  -2 -12   99.99   27.30 
  -8   2  12  192.38   40.30 
  -8  -2  12  208.08   42.10 
  -8   2 -12  244.08   40.90 
   0  -3  12  292.87   37.50 
   0   3  12  317.67   39.20 
  -1   3  12   45.90   15.40 
   1  -3  12   35.10   13.80 
  -1  -3  12    8.30   10.00 
   1   3  12    7.80    8.50 
   2  -3  12  467.15   47.20 
  -2   3  12  409.96   43.50 
   2   3  12  397.66   44.40 
  -2  -3  12  391.86   44.80 
   3  -3  12   86.79   22.30 
  -3   3  12   39.80   13.70 
  -3  -3 -12   56.79   16.90 
  -3   3 -12   50.49   15.80 
  -3   3 -12   61.29   17.80 
   3   3  12   58.89   19.60 
  -3  -3  12   39.30   13.30 
  -3  -3  12   61.39   18.50 
   4  -3  12  170.08   29.00 
  -4   3  12  187.58   28.40 
  -4   3  12  191.18   30.90 
  -4  -3 -12  252.27   34.70 
  -4  -3  12  139.29   24.90 
  -4  -3  12  214.38   33.00 
   4   3  12  167.98   30.50 
  -4   3 -12  207.38   28.60 
  -4   3 -12  205.28   30.90 
  -5   3  12   12.90   13.50 
   5  -3  12   10.10   11.50 
  -5  -3 -12    0.20   10.50 
  -5  -3  12    0.30   10.00 
  -5  -3  12   18.30   12.90 
  -5   3 -12   12.70   11.50 
   5   3  12    0.60   11.00 
  -6   3  12   87.69   24.60 
  -6  -3 -12   81.59   23.00 
   6   3  12   88.99   24.50 
  -6  -3  12   46.80   20.60 
  -6   3 -12   69.19   20.20 
  -6  -3  12   35.80   17.60 
  -7  -3 -12   59.69   20.30 
  -7   3  12   53.09   23.20 
   7   3  12   42.20   20.90 
  -7   3 -12   50.09   19.10 
  -7  -3  12   41.80   22.20 
  -8  -3 -12   26.80   16.30 
  -8   3  12   -3.30   17.60 
  -8  -3  12   24.10   21.60 
  -8   3 -12    4.90   15.90 
   0  -4  12  159.58   27.70 
   0   4  12  216.88   32.70 
   1  -4  12   13.60   11.50 
  -1   4  12   -6.20    7.30 
  -1  -4  12    7.50    9.60 
   1   4  12    7.90   10.40 
   2  -4  12    6.10    8.60 
  -2   4  12    8.20    9.20 
  -2  -4  12    1.40    8.60 
   2   4  12    7.70   10.80 
  -2   4 -12    4.10   10.50 
   3  -4  12   18.50   12.20 
  -3   4  12   -3.00    6.80 
   3   4  12    5.70   10.30 
  -3  -4  12   12.10   10.30 
  -3  -4  12    7.10    9.60 
  -3   4 -12   13.00   13.30 
  -4   4  12  469.95   52.69 
   4  -4  12  518.85   43.40 
  -4   4  12  483.25   40.10 
  -4  -4 -12  543.95   53.99 
  -4  -4  12  485.95   51.39 
  -4  -4  12  509.65   53.89 
  -4   4 -12  500.45   38.80 
   4   4  12  466.65   53.09 
  -4   4 -12  396.06   45.10 
   5  -4  12   39.80   17.00 
  -5  -4 -12   33.90   14.30 
  -5   4  12   13.20   11.20 
  -5  -4  12    9.70   12.40 
   5   4  12   29.00   16.40 
  -5   4 -12   12.10   13.00 
  -5  -4  12   51.79   22.00 
  -5   4 -12   19.70   14.70 
  -6  -4 -12  168.98   31.70 
  -6   4  12  216.38   37.40 
  -6   4 -12  289.27   55.29 
   6   4  12  188.78   35.80 
  -6  -4  12  121.09   28.90 
  -7   4  12   57.79   22.90 
  -7  -4 -12   41.10   18.70 
   7   4  12   39.80   22.20 
  -8  -4 -12   29.60   19.70 
  -8   4  12   15.60   17.00 
   0  -5  12  591.84   48.10 
   0   5  12  636.54   49.40 
   1  -5  12  196.98   31.60 
  -1   5  12  213.78   31.60 
   1   5  12  157.08   28.80 
  -1  -5  12  169.48   30.30 
   2  -5  12   98.39   22.00 
  -2   5  12  125.69   23.40 
   2   5  12  109.29   24.90 
  -2  -5  12  136.89   26.40 
  -2   5 -12   92.29   22.00 
  -3   5  12   79.89   19.40 
   3  -5  12  106.49   22.70 
  -3   5 -12   94.19   21.70 
  -3  -5  12   84.39   22.20 
   3   5  12  113.79   26.40 
   4  -5  12   23.20   13.10 
  -4  -5 -12   20.60   13.50 
  -4   5  12    9.00    9.90 
  -4   5  12   18.10   12.30 
   4   5  12   28.10   16.10 
  -4  -5  12   19.40   12.80 
  -4   5 -12   22.70   14.60 
   5  -5  12   56.49   23.90 
  -5  -5 -12    3.50   10.10 
  -5   5  12   28.20   16.70 
   5   5  12   25.10   17.20 
  -5  -5  12   47.00   18.40 
  -5   5 -12   22.60   14.90 
  -6  -5 -12    9.30   12.40 
  -6   5  12    9.60   13.10 
  -6  -5  12   -1.10   13.90 
   6   5  12    1.20   15.30 
  -7   5  12   90.09   27.70 
  -7  -5 -12  182.18   37.10 
   7   5  12  172.48   36.80 
  -8  -5 -12   29.40   19.30 
  -8   5  12   18.60   19.50 
   0  -6  12  198.98   32.60 
   0   6  12  180.98   29.90 
   1  -6  12   37.30   15.70 
  -1   6  12   10.40   11.10 
  -1  -6  12   35.10   15.50 
  -1   6 -12   29.20   14.80 
   1   6  12   43.90   17.00 
   2  -6  12  210.08   32.40 
  -2   6  12  124.49   24.70 
  -2  -6  12  241.08   36.90 
   2   6  12  235.68   36.70 
  -2   6 -12  202.28   33.10 
   3  -6  12  129.89   25.80 
  -3   6  12  144.99   24.90 
  -3   6 -12  162.48   30.30 
  -3  -6  12  195.58   34.80 
   3   6  12  219.38   37.20 
   4  -6  12   21.20   14.00 
  -4  -6 -12    0.70   11.20 
  -4   6  12   14.30   11.50 
   4   6  12   17.80   14.50 
  -4   6 -12   -6.00   10.60 
  -4  -6  12   14.60   13.50 
  -5  -6 -12   -1.50    9.70 
  -5   6  12    1.60   11.20 
   5   6  12   -0.60   12.50 
  -5  -6  12    9.60   13.40 
  -5   6 -12    1.00   12.10 
  -6   6  12   65.19   24.20 
  -6  -6 -12   53.09   20.70 
  -6   6 -12   46.20   20.30 
  -6  -6  12   19.30   17.50 
   6   6  12   36.80   21.70 
  -7  -6 -12    0.20   11.00 
  -7   6  12   -6.20   12.80 
   7   6  12    4.10   18.80 
   0  -7  12   91.29   23.10 
   0   7  12  103.29   23.70 
   1  -7  12   61.79   18.90 
  -1   7  12  103.09   22.50 
  -1   7 -12   66.89   20.40 
   1   7  12   43.50   17.60 
  -1  -7  12   57.39   19.00 
   2  -7  12   80.39   21.30 
  -2   7  12   68.09   18.60 
  -2   7 -12   65.09   21.30 
   2   7  12   41.90   17.30 
  -2  -7  12   86.49   23.50 
  -3   7  12   30.90   15.20 
   3  -7  12   37.40   14.90 
  -3  -7  12   39.50   17.00 
  -3   7 -12   27.80   15.00 
   3   7  12   18.60   14.60 
  -4   7  12  111.79   26.40 
   4  -7  12   64.59   19.40 
  -4   7 -12   94.49   24.90 
  -4  -7  12   69.19   23.10 
   4   7  12   75.19   23.50 
  -5   7  12   16.40   13.20 
  -5  -7 -12    8.10   13.20 
  -5  -7  12   -4.30   12.70 
  -5   7 -12   11.80   13.80 
   5   7  12    7.70   12.90 
  -6   7  12   19.90   18.80 
  -6  -7 -12    7.10   14.40 
   6   7  12   10.60   16.70 
  -6  -7  12    3.70   13.70 
  -6   7 -12   37.60   21.00 
  -7  -7 -12   -0.70   13.60 
  -7   7  12   -3.40   13.80 
   7   7  12   24.80   21.10 
  -7  -7  12    8.70   19.10 
   0   8  12   36.20   16.00 
   0  -8  12   69.99   20.60 
  -1   8  12    6.60    9.60 
   1  -8  12    5.50   11.70 
  -1  -8  12    5.80   10.80 
   1   8  12   -4.70    9.60 
  -1   8 -12    7.40   12.70 
   2  -8  12   40.20   16.80 
  -2   8  12    7.20   11.50 
   2   8  12    6.00   11.20 
  -2   8 -12    3.40   11.30 
  -2  -8  12    1.40    9.50 
  -3   8  12   30.00   15.80 
   3  -8  12   13.00   13.30 
  -3  -8  12   24.70   15.40 
  -3   8 -12   14.50   13.10 
   3   8  12   41.60   18.90 
  -4   8  12   92.69   24.60 
   4  -8  12   77.39   21.60 
   4   8  12  127.39   32.30 
  -4  -8  12  165.58   34.50 
  -4   8 -12  100.39   27.00 
  -5   8  12   49.70   20.80 
  -5  -8 -12   83.39   25.40 
  -5  -8  12   94.99   28.50 
  -5   8 -12   98.79   27.10 
   5   8  12  134.49   33.80 
  -6  -8 -12   52.99   22.80 
  -6   8  12   73.49   26.70 
  -6   8 -12   46.00   21.80 
   6   8  12   55.29   23.20 
  -6  -8  12   72.69   27.60 
   0  -9  12  184.68   33.80 
   0   9  12   72.39   20.90 
   0   9 -12  116.49   27.20 
   1  -9  12   12.20   13.80 
  -1   9  12   54.59   19.70 
   1   9  12   64.39   21.40 
  -1   9 -12   60.09   23.10 
  -1  -9  12   24.50   16.00 
   2  -9  12   34.20   16.70 
  -2   9  12   51.09   19.50 
  -2  -9  12   59.39   22.20 
   2   9  12   14.90   14.60 
  -2   9 -12   56.79   20.70 
   3  -9  12   14.10   13.80 
  -3  -9  12   34.20   16.60 
   3   9  12    2.10   14.90 
  -3   9 -12   77.39   24.30 
  -4   9  12   -3.40   12.50 
  -4  -9  12    7.80   13.90 
  -4   9 -12    8.70   14.50 
   4   9  12   -3.10   12.60 
  -5   9  12   24.50   18.70 
  -5   9 -12   -2.50   15.60 
  -5  -9  12   18.30   17.00 
   5   9  12   22.40   21.90 
  -6   9  12   21.70   19.10 
  -6  -9 -12   39.20   20.70 
  -6   9 -12    4.80   17.30 
   6   9  12   16.20   22.10 
  -6  -9  12   16.60   18.80 
   0  10 -12   56.89   21.30 
   0 -10  12   26.70   18.00 
   0  10  12   54.89   21.20 
   1 -10  12   36.90   17.80 
  -1  10  12   46.30   17.60 
  -1  10 -12   41.60   18.50 
  -1 -10  12   48.10   18.40 
   1  10  12   20.10   16.20 
  -2  10  12    5.70   13.60 
   2 -10  12   10.00   13.50 
   2  10  12    6.30   14.30 
  -2 -10  12   10.60   14.50 
  -2  10 -12    1.10   13.90 
   3 -10  12  102.69   26.70 
  -3 -10  12  156.58   33.70 
   3  10  12  128.79   34.40 
  -4  10  12    0.40   12.40 
  -4  10 -12   15.20   17.20 
  -4 -10  12   12.20   17.70 
   4  10  12   31.00   22.20 
  -5  10  12   14.20   15.70 
  -5 -10  12   26.50   21.10 
  -5  10 -12    2.30   15.90 
   5  10  12    7.20   21.00 
   0  11  12   48.40   19.10 
   0 -11  12   68.89   23.20 
   0  11 -12   60.29   22.50 
   1 -11  12    3.90   13.70 
  -1  11  12    3.00   11.80 
  -1  11 -12   -7.70   11.90 
  -1 -11  12   -7.20   13.10 
   1  11  12   16.00   14.90 
  -2  11  12   11.60   16.10 
   2 -11  12   14.60   16.20 
  -2 -11  12   24.10   18.90 
  -2  11 -12   24.70   16.20 
   2  11  12   43.60   23.40 
   3 -11  12   51.69   21.00 
   3  11  12   48.60   23.50 
  -3 -11  12   26.90   18.90 
  -3  11 -12   36.80   22.00 
  -4  11  12   28.00   18.70 
   4  11  12   72.79   29.90 
  -4 -11  12   16.20   16.80 
  -4  11 -12   14.90   18.20 
   0  12  12   35.40   19.80 
   0  12 -12   22.30   19.40 
   0 -12  12   13.90   16.60 
  -1  12  12   14.00   16.00 
   1 -12  12    6.50   15.20 
   1  12  12   -7.00   14.00 
  -1  12 -12   11.90   15.60 
  -1 -12  12   -0.30   12.20 
   2 -12  12    5.00   17.40 
   2  12  12    7.50   18.90 
  -2 -12  12    9.90   17.30 
  -2  12 -12   11.50   15.40 
  -3 -12  12    1.30   17.70 
  -3  12 -12   14.20   18.40 
   3  12  12   28.50   22.00 
   0   0  13   -2.10    6.90 
   1   0  13    1.40    7.90 
  -1   0  13    5.10    9.20 
   2   0  13   29.50   13.60 
  -2   0  13   26.40   13.00 
  -3   0  13    2.10    8.20 
   3   0  13    2.70    8.40 
   4   0  13  189.48   33.80 
  -4   0 -13  134.59   24.70 
  -4   0  13  154.88   29.00 
  -4   0  13  144.29   26.90 
  -5   0  13   -3.30    9.40 
  -5   0 -13    2.00    9.60 
   5   0  13   -2.00   11.30 
  -5   0  13    1.60   10.50 
  -6   0 -13  139.79   29.00 
   6   0  13  109.09   28.40 
  -6   0  13  105.29   26.50 
  -7   0 -13   10.70   13.60 
  -7   0  13   -0.20   15.50 
  -8   0  13   40.90   24.70 
  -8   0 -13   38.60   21.40 
   0  -1  13    2.10    8.00 
   0   1  13    0.40    7.70 
   1  -1  13   74.09   19.50 
  -1   1  13   76.49   19.80 
   1   1  13   80.59   21.00 
  -1  -1  13  119.69   25.00 
   2  -1  13  100.69   22.20 
  -2   1  13  112.79   24.30 
  -2  -1  13   89.79   21.30 
   2   1  13  107.79   24.40 
  -3   1  13    8.30    8.40 
   3  -1  13   11.00   12.30 
  -3  -1  13    6.50    9.40 
   3   1  13    3.80   11.50 
  -4   1  13  112.09   23.30 
   4  -1  13  145.59   27.20 
  -4   1  13  126.29   25.90 
  -4  -1 -13  158.98   28.40 
  -4  -1  13  103.89   23.10 
  -4  -1  13  189.58   31.70 
  -4   1 -13  108.89   22.50 
   4   1  13  172.08   31.20 
  -5   1  13   76.69   21.80 
  -5   1  13   77.79   20.60 
   5  -1  13  104.09   25.80 
  -5  -1 -13   90.79   23.00 
  -5  -1  13   68.19   20.80 
  -5   1 -13   84.69   21.70 
   5   1  13  101.89   25.80 
  -5  -1  13   52.89   19.00 
   6  -1  13   57.59   20.90 
  -6  -1 -13   57.49   20.20 
  -6   1  13   41.50   21.40 
   6   1  13   73.79   23.90 
  -6   1 -13   46.90   18.80 
  -6  -1  13   45.00   20.50 
  -7  -1 -13    3.60   11.50 
  -7   1  13   -2.50   14.70 
  -7   1 -13   -6.80   11.70 
  -7  -1  13    8.50   15.90 
  -8  -1 -13    0.30   15.20 
  -8   1  13    0.40   17.20 
  -8   1 -13   18.60   18.70 
  -8  -1  13   27.80   21.80 
   0  -2  13   -3.80    8.50 
   0   2  13   -9.40    7.50 
   1  -2  13    4.90    9.70 
  -1   2  13    9.20    8.90 
  -1  -2  13   34.60   15.40 
   1   2  13   36.90   15.90 
  -2   2  13  391.26   43.50 
   2  -2  13  345.87   43.20 
  -2  -2  13  391.16   44.60 
   2   2  13  388.06   47.20 
  -3   2  13   14.90   10.80 
   3  -2  13   43.40   16.90 
  -3  -2  13   10.30   10.30 
  -3  -2  13   21.90   13.40 
   3   2  13    8.00   11.20 
  -4   2  13  126.29   26.40 
  -4   2  13  203.18   31.80 
  -4  -2 -13  202.38   32.70 
   4  -2  13  168.08   30.10 
  -4   2 -13  183.28   27.70 
  -4  -2  13  228.98   32.60 
   4   2  13  191.48   33.50 
  -4  -2  13  194.68   31.60 
  -5   2  13   -3.20   10.40 
  -5  -2 -13    9.00   11.90 
   5  -2  13   11.10   14.80 
   5   2  13    4.80   11.70 
  -5  -2  13    0.50   12.00 
  -5  -2  13    1.70   11.80 
  -5   2 -13    3.60   10.20 
  -6   2  13   20.80   14.70 
  -6  -2 -13   24.50   14.90 
  -6  -2  13   61.69   21.00 
   6   2  13   39.80   19.50 
  -6   2 -13   38.20   17.90 
  -7   2  13   -4.20   13.40 
  -7  -2 -13    3.20   14.10 
  -7   2 -13  -12.50   11.80 
  -7  -2  13  -11.30   14.40 
  -8  -2 -13   60.69   23.60 
  -8   2  13   40.60   22.80 
  -8  -2  13   37.80   25.10 
  -8   2 -13   33.20   19.70 
   0   3  13    5.60   10.00 
   0  -3  13   -2.10    7.20 
   1  -3  13  161.38   29.70 
  -1   3  13  191.08   30.70 
  -1  -3  13  165.48   29.30 
   1   3  13  202.48   32.50 
  -2   3  13  167.48   28.00 
   2  -3  13  224.58   35.10 
   2   3  13  207.08   33.00 
  -2  -3  13  155.58   29.50 
  -3   3  13  154.88   27.40 
   3  -3  13  102.09   23.50 
  -3  -3  13  160.38   25.60 
   3   3  13  118.29   26.60 
  -3  -3  13  130.09   27.20 
  -4  -3 -13  126.99   27.50 
   4  -3  13  120.79   26.70 
  -4   3  13   89.99   21.90 
  -4   3  13  103.29   24.60 
  -4   3 -13  102.29   24.10 
   4   3  13   84.39   21.90 
  -4  -3  13  108.19   21.90 
  -4  -3  13  123.19   26.70 
  -4   3 -13  132.19   24.50 
  -5  -3 -13   61.19   19.70 
   5  -3  13   82.99   22.70 
  -5   3  13  108.69   26.60 
  -5  -3  13   55.69   19.80 
  -5   3 -13   75.89   19.60 
   5   3  13   61.09   23.00 
  -5  -3  13   87.19   24.10 
  -6   3  13    5.00   13.70 
  -6  -3 -13   15.60   13.30 
  -6  -3  13   27.30   17.20 
   6   3  13   24.20   17.20 
  -6  -3  13   17.70   16.20 
  -6   3 -13   29.40   16.60 
  -7   3  13   -2.30   13.10 
  -7  -3 -13    3.20   14.70 
  -7   3 -13   32.30   19.10 
  -7  -3  13   20.80   20.20 
   7   3  13    8.80   15.60 
  -8  -3 -13    2.10   15.70 
  -8   3 -13    2.90   17.00 
   0   4  13    1.60    9.30 
   0  -4  13    0.40    9.50 
  -1   4  13  190.38   30.60 
   1  -4  13  152.98   28.90 
  -1  -4  13  162.48   29.80 
   1   4  13   93.79   22.50 
   2  -4  13   36.70   17.00 
  -2   4  13    0.40   10.40 
  -2  -4  13   25.60   13.30 
   2   4  13   47.10   18.60 
   3  -4  13   48.00   17.70 
  -3   4  13   65.19   19.60 
  -3  -4  13   65.09   19.70 
   3   4  13   55.99   19.20 
  -3   4 -13   61.59   19.30 
   4  -4  13   16.70   12.20 
  -4   4  13   22.10   12.70 
  -4   4  13   23.70   13.50 
  -4  -4 -13    1.20   10.40 
  -4  -4  13   19.90   14.40 
   4   4  13   23.60   15.80 
  -4   4 -13    7.90   13.20 
  -5  -4 -13   14.60   12.40 
   5  -4  13    9.70   13.50 
  -5   4  13    3.30   12.50 
   5   4  13    7.60   13.40 
  -5  -4  13    3.80   13.70 
  -6   4  13  118.79   31.10 
  -6  -4 -13   69.39   21.50 
   6   4  13  128.89   32.30 
  -6  -4  13  119.59   28.20 
  -7  -4 -13    0.20   13.20 
  -7   4  13    6.90   15.90 
   7   4  13   19.50   17.70 
   0   5  13    3.00   10.10 
   0  -5  13    0.40    9.70 
  -1   5  13   41.60   16.50 
   1  -5  13   24.00   14.10 
  -1  -5  13   37.10   16.00 
   1   5  13   18.70   12.40 
  -2   5  13   47.60   15.00 
   2  -5  13   42.20   16.90 
  -2   5 -13   52.79   18.70 
   2   5  13   60.29   20.50 
  -2  -5  13   29.00   13.80 
   3  -5  13   38.00   16.90 
  -3   5  13   13.70   13.50 
  -3  -5  13   40.90   16.20 
   3   5  13   30.20   16.30 
  -3   5 -13   29.50   17.40 
   4  -5  13  108.59   24.70 
  -4  -5 -13   66.19   21.40 
  -4   5  13   48.30   19.70 
  -4   5  13  114.49   25.30 
   4   5  13   47.90   21.80 
  -4   5 -13  100.89   24.90 
  -4  -5  13   70.19   21.20 
   5  -5  13   55.39   25.10 
  -5  -5 -13   25.20   15.20 
  -5   5  13   47.50   20.80 
  -5  -5  13   50.79   20.70 
  -5   5 -13   44.00   19.40 
   5   5  13   53.29   22.50 
  -6   5  13   70.39   25.20 
  -6  -5 -13   74.59   22.60 
   6   5  13  100.79   29.40 
  -6  -5  13   84.89   27.00 
  -7  -5 -13   48.00   22.60 
  -7   5  13   46.90   25.20 
   7   5  13   67.59   27.10 
   0   6  13   -4.00    7.30 
   0  -6  13    7.50   11.10 
   1  -6  13  130.29   26.80 
  -1   6  13   72.59   20.70 
  -1  -6  13   91.39   24.30 
   1   6  13  129.49   29.90 
  -2   6  13  223.28   33.30 
   2  -6  13  218.08   34.40 
  -2   6 -13  139.39   29.00 
   2   6  13  261.17   39.30 
  -2  -6  13  205.88   34.90 
   3  -6  13  146.69   28.10 
  -3   6  13  104.39   23.10 
   3   6  13   54.89   21.60 
  -3   6 -13   84.49   24.00 
  -3  -6  13   88.89   24.80 
  -4   6  13   52.39   20.10 
   4  -6  13   81.79   23.70 
   4   6  13   41.20   17.60 
  -4  -6  13   35.00   16.70 
  -4   6 -13   36.70   18.90 
  -5   6  13    6.30   12.10 
  -5  -6 -13   63.09   23.70 
  -5  -6  13   30.00   16.90 
   5   6  13   22.30   17.60 
  -5   6 -13   52.29   20.80 
  -6  -6 -13   11.50   13.20 
  -6   6  13   -7.40   11.60 
   6   6  13    3.30   17.00 
  -6  -6  13   -9.20   15.70 
  -6   6 -13   -0.20   24.30 
  -7  -6 -13   22.20   20.40 
  -7   6  13   14.60   18.70 
   7   6  13    6.90   20.80 
   0   7  13   -1.10    9.60 
   0  -7  13    6.10   11.40 
   1  -7  13  137.49   28.80 
  -1   7  13  126.89   26.60 
  -1   7 -13   93.29   24.50 
  -1  -7  13   84.99   23.00 
   1   7  13  113.49   27.80 
  -2   7  13  124.09   25.90 
   2  -7  13  192.78   33.30 
  -2  -7  13  164.38   31.40 
  -2   7 -13  113.69   26.40 
   2   7  13  136.19   29.20 
   3  -7  13  116.39   25.00 
  -3   7  13   70.49   19.80 
   3   7  13   67.19   22.60 
  -3  -7  13   96.29   25.60 
  -3   7 -13   87.69   24.30 
   4  -7  13   99.79   25.30 
  -4   7  13   42.60   17.80 
   4   7  13   46.00   21.60 
  -4   7 -13   48.60   20.30 
  -4  -7  13   70.69   23.50 
  -5   7  13  117.39   28.20 
  -5  -7 -13  178.18   35.10 
   5   7  13  121.49   33.30 
  -5  -7  13   76.69   26.00 
  -5   7 -13  120.79   30.00 
  -6  -7 -13    5.60   13.00 
  -6   7  13    6.40   14.70 
  -6   7 -13   -9.60   14.60 
  -6  -7  13   -5.10   15.10 
   6   7  13   20.70   21.00 
   0  -8  13   -2.40    9.90 
   0   8  13   -0.20   10.30 
   1  -8  13  233.28   37.00 
  -1   8  13  172.88   31.90 
   1   8  13  173.38   33.40 
  -1  -8  13  223.18   36.90 
  -1   8 -13  191.98   35.30 
  -2   8  13    4.40   13.00 
   2  -8  13   36.90   16.50 
  -2  -8  13   24.80   14.30 
   2   8  13   12.80   13.30 
  -2   8 -13   14.60   16.20 
  -3   8  13   70.59   21.50 
   3  -8  13   52.79   20.00 
   3   8  13   26.60   15.40 
  -3  -8  13   95.99   26.50 
  -3   8 -13   60.19   22.50 
   4  -8  13    5.50   13.90 
  -4   8  13    5.40   13.10 
  -4   8 -13    8.80   15.30 
   4   8  13    9.10   13.60 
  -4  -8  13   13.80   13.90 
  -5   8  13   59.19   23.00 
   5   8  13  126.29   32.90 
  -5   8 -13   73.29   25.20 
  -5  -8  13   18.50   18.20 
  -6  -8 -13   48.70   22.50 
  -6   8  13   37.80   21.30 
  -6  -8  13   32.10   20.20 
  -6   8 -13   65.79   25.90 
   6   8  13   37.30   22.60 
   0  -9  13   -1.00   11.20 
   0   9  13   -3.10    9.40 
  -1   9  13   48.30   18.60 
   1  -9  13   24.90   16.50 
  -1  -9  13   27.20   16.20 
   1   9  13   26.60   16.00 
  -1   9 -13   60.39   22.40 
   2  -9  13    4.50   10.30 
  -2   9  13   16.20   14.50 
   2   9  13   -1.60   12.00 
  -2   9 -13   18.30   15.80 
  -2  -9  13    4.30   13.10 
   3  -9  13   60.29   22.50 
   3   9  13   25.40   18.90 
  -3  -9  13   61.29   22.00 
  -3   9 -13   80.59   24.60 
  -4   9  13   11.80   14.10 
  -4   9 -13   -8.30   14.70 
   4   9  13   53.49   24.30 
  -4  -9  13    3.80   16.70 
  -5   9  13   42.70   22.30 
   5   9  13   47.30   23.20 
  -5   9 -13   25.90   20.10 
  -5  -9  13   69.79   28.10 
   0  10  13   -0.90   12.60 
   0 -10  13    4.50   14.50 
  -1  10  13   62.59   22.90 
   1 -10  13  116.69   28.30 
  -1 -10  13  108.19   28.90 
   1  10  13  135.39   32.30 
  -1  10 -13   47.80   20.50 
  -2  10  13   32.00   18.40 
   2 -10  13   16.20   15.30 
   2  10  13   62.99   23.10 
  -2  10 -13   55.89   21.00 
  -2 -10  13   23.40   16.90 
   3 -10  13   62.59   22.50 
  -3  10 -13   29.10   18.90 
  -3 -10  13   85.89   29.00 
   3  10  13   37.30   20.80 
  -4  10  13   19.10   17.40 
  -4  10 -13   15.70   18.00 
   4  10  13   33.00   22.90 
  -4 -10  13   11.30   20.10 
   0  11  13   -2.70   12.90 
   0 -11  13   27.50   18.20 
   1 -11  13   37.10   18.90 
  -1  11  13   39.20   20.00 
   1  11  13   57.29   22.20 
  -1 -11  13   48.70   23.40 
  -1  11 -13   39.80   20.50 
  -2  11  13   42.10   20.50 
   2 -11  13   68.59   23.60 
   2  11  13  114.39   33.00 
  -2  11 -13   58.49   23.70 
  -2 -11  13   65.49   23.00 
   3 -11  13   40.60   20.90 
  -3 -11  13   51.09   24.10 
  -3  11 -13   30.60   20.50 
   3  11  13    8.20   16.00 
   0  12  13   44.70   22.20 
   0 -12  13    0.30   14.50 
  -1  12  13  111.69   28.40 
   1  12  13  141.59   35.20 
  -1  12 -13  192.28   39.30 
   0   0  14  221.78   34.30 
  -1   0  14    0.30    9.60 
   1   0  14    5.90   10.50 
   2   0  14  178.88   32.20 
  -2   0  14  152.88   29.20 
   3   0  14    2.90    9.90 
  -3   0  14   -1.80    9.10 
  -4   0  14   67.69   20.10 
  -4   0  14   64.09   19.00 
   4   0  14   63.99   21.60 
  -4   0 -14   74.09   21.90 
  -5   0  14    2.20   12.50 
  -5   0  14   -0.90   11.40 
   5   0  14   -5.60   12.10 
  -5   0 -14   -0.70   10.80 
  -6   0  14   83.59   27.00 
   6   0  14  142.79   30.00 
  -6   0 -14  105.89   26.30 
  -7   0  14   -7.30   16.50 
  -7   0 -14    2.70   14.80 
   0  -1  14  470.55   52.09 
   0   1  14  428.06   48.80 
  -1   1  14   63.49   19.90 
   1  -1  14  146.39   28.10 
  -1  -1  14  136.19   28.50 
   1   1  14  172.88   31.20 
   2  -1  14  247.88   36.90 
  -2   1  14  225.58   35.40 
   2   1  14  256.57   38.30 
  -2  -1  14  283.47   40.50 
  -3   1  14   61.79   18.80 
   3  -1  14   74.79   21.30 
   3   1  14  114.89   27.70 
  -3  -1  14   98.39   23.30 
  -4   1  14   63.19   19.50 
  -4  -1 -14   35.90   15.70 
  -4   1  14   31.30   13.90 
   4  -1  14   31.20   17.20 
  -4  -1  14   33.70   16.20 
  -4  -1  14   51.29   18.70 
   4   1  14   14.10   15.00 
  -4   1 -14   47.30   18.50 
  -5  -1 -14    4.00   11.70 
  -5   1  14    4.20   11.80 
  -5   1  14    5.70   13.10 
   5  -1  14   32.20   16.70 
  -5  -1  14   19.80   14.70 
  -5  -1  14   -3.60   11.30 
  -5   1 -14    4.20   12.00 
   5   1  14   -2.40   12.00 
   6  -1  14   -4.50   12.40 
  -6   1  14  -14.00   13.20 
  -6  -1 -14   11.50   12.70 
  -6  -1  14    6.00   14.10 
   6   1  14    1.70   13.90 
  -6   1 -14    5.00   12.20 
  -7  -1 -14    8.70   14.20 
  -7   1  14   38.50   21.90 
  -7   1 -14   18.00   16.90 
  -7  -1  14   15.30   18.40 
   0  -2  14   33.10   14.50 
   0   2  14   72.49   20.80 
  -1   2  14    1.10    8.40 
   1  -2  14    2.10    9.70 
   1   2  14    3.70    8.90 
  -1  -2  14   18.50   11.30 
   2  -2  14   45.90   19.30 
  -2   2  14   68.39   20.20 
   2   2  14   72.79   21.90 
  -2  -2  14   56.79   19.30 
   3  -2  14   24.10   16.00 
  -3   2  14   19.40   11.90 
  -3  -2  14   25.70   15.30 
  -3  -2  14    9.70   10.90 
   3   2  14   16.50   13.00 
  -4   2  14  261.87   36.90 
  -4  -2 -14  275.17   39.50 
  -4   2  14  236.08   36.20 
   4  -2  14  353.36   44.80 
  -4  -2  14  238.28   36.70 
  -4   2 -14  269.97   36.30 
  -4  -2  14  203.88   32.10 
   4   2  14  305.07   42.90 
  -5   2  14   22.20   16.50 
  -5  -2 -14    1.70   11.20 
   5  -2  14   29.10   18.10 
  -5   2 -14   17.90   14.70 
   5   2  14   43.00   20.70 
  -5  -2  14   14.30   14.40 
  -5  -2  14   14.20   16.50 
  -6   2  14  130.49   30.20 
  -6  -2 -14  207.08   36.50 
  -6   2 -14  160.68   30.00 
  -6  -2  14  182.28   34.70 
   6   2  14  176.68   35.30 
  -7   2  14   -0.40   18.20 
  -7  -2 -14   12.30   16.20 
  -7   2 -14   16.00   16.20 
  -7  -2  14    4.50   15.50 
   0  -3  14  483.95   51.89 
   0   3  14  452.95   50.59 
  -1   3  14   25.30   14.70 
   1  -3  14   22.80   15.10 
  -1  -3  14   15.50   12.70 
   1   3  14   12.90   12.30 
   2  -3  14  319.37   42.50 
  -2   3  14  217.98   34.30 
   2   3  14  285.67   41.30 
  -2  -3  14  295.47   41.10 
  -3   3  14   41.20   15.60 
   3  -3  14   48.00   18.30 
  -3  -3  14   41.00   15.80 
   3   3  14   62.89   22.10 
  -3  -3  14   39.80   17.20 
  -4   3  14   18.20   13.00 
   4  -3  14   22.80   14.60 
  -4   3  14    5.30   11.60 
   4   3  14    4.20   13.10 
  -4  -3  14   36.60   15.70 
  -4  -3  14   17.20   13.20 
  -5   3  14   28.00   15.90 
  -5  -3 -14   21.30   13.90 
   5  -3  14   11.80   15.60 
  -5  -3  14    6.60   13.70 
  -5  -3  14   17.50   14.90 
   5   3  14   10.60   13.00 
  -5   3 -14    6.90   13.60 
  -6   3  14    9.60   14.20 
  -6  -3 -14   13.50   14.30 
  -6   3 -14    0.40   15.20 
   6   3  14    6.60   14.10 
  -6  -3  14  -13.10   13.30 
  -6  -3  14   14.40   19.00 
  -7  -3 -14   81.79   25.60 
  -7   3  14   63.19   27.40 
   7   3  14   40.00   22.10 
   0  -4  14  264.07   38.70 
   0   4  14  226.28   35.40 
  -1   4  14    0.10    9.50 
   1  -4  14   11.20   11.00 
  -1  -4  14   16.50   11.60 
   1   4  14   20.80   14.40 
   2  -4  14   70.19   21.50 
  -2   4  14   89.29   23.20 
   2   4  14   58.39   19.60 
  -2  -4  14   25.20   14.20 
   3  -4  14   35.10   17.20 
  -3   4  14   39.30   17.50 
  -3  -4  14   54.99   19.60 
   3   4  14   46.40   18.30 
  -4   4  14    8.20   13.00 
  -4   4  14   28.90   15.00 
   4  -4  14   24.90   15.20 
   4   4  14    6.60   13.30 
  -4  -4  14   38.70   17.70 
  -4   4 -14   45.90   20.70 
  -5   4  14   15.70   16.20 
   5  -4  14   11.10   15.40 
  -5  -4 -14   10.90   12.60 
   5   4  14    9.30   14.60 
  -5  -4  14   16.90   15.20 
  -6  -4 -14   45.10   19.40 
  -6   4  14   69.19   25.60 
  -6  -4  14   96.79   27.70 
   6   4  14   93.19   27.70 
  -7  -4 -14    2.10   14.10 
  -7   4  14   -4.20   13.50 
   7   4  14    7.20   19.70 
   0   5  14  151.18   29.40 
   0  -5  14  165.18   32.80 
  -1   5  14   62.49   20.20 
   1  -5  14   89.99   24.30 
   1   5  14  101.79   26.10 
  -1  -5  14   99.59   25.60 
   2  -5  14  137.19   29.30 
  -2   5  14  180.48   31.30 
  -2  -5  14  177.78   31.90 
   2   5  14  216.78   36.90 
  -3   5  14   28.40   16.30 
   3  -5  14   40.00   17.20 
   3   5  14   62.09   22.00 
  -3   5 -14   46.10   18.50 
  -3  -5  14   35.90   17.80 
   4  -5  14   60.29   20.70 
  -4   5  14   91.49   25.60 
   4   5  14   73.09   24.60 
  -4   5 -14   36.70   18.90 
  -4  -5  14   79.29   25.50 
  -5   5  14    8.80   14.20 
  -5  -5 -14   31.60   17.70 
   5  -5  14  -15.10   16.10 
  -5  -5  14   11.90   14.40 
   5   5  14   15.30   18.10 
  -6   5  14   -0.60   16.70 
  -6  -5 -14   15.70   16.30 
   6   5  14   -3.50   17.70 
  -6  -5  14    3.30   17.30 
   0   6  14   36.40   15.70 
   0  -6  14   31.00   16.00 
   1  -6  14   19.60   15.50 
  -1   6  14    4.60   10.00 
  -1  -6  14   27.60   15.60 
   1   6  14    6.60   11.30 
   2  -6  14   22.30   13.50 
  -2   6  14   10.30   11.90 
  -2  -6  14   -0.90    9.60 
   2   6  14    3.70   12.80 
  -3   6  14   21.30   15.20 
   3  -6  14   26.60   15.70 
  -3   6 -14    7.60   16.30 
   3   6  14   15.30   16.00 
  -3  -6  14   15.40   15.00 
   4  -6  14  197.08   35.70 
  -4   6  14   94.39   24.80 
   4   6  14  120.19   31.10 
  -4   6 -14  203.88   36.60 
  -4  -6  14   75.99   24.10 
  -5  -6 -14   36.10   20.40 
  -5   6  14   11.00   16.00 
  -5  -6  14   48.90   22.40 
  -5   6 -14   34.30   19.70 
   5   6  14   10.00   19.00 
  -6  -6 -14   91.89   27.90 
  -6   6  14   98.29   27.50 
   6   6  14  100.09   32.40 
  -6  -6  14   96.69   29.30 
   0   7  14  243.58   38.90 
   0  -7  14  225.68   39.20 
   1  -7  14   22.40   16.40 
  -1   7  14   44.70   18.70 
  -1  -7  14   33.80   15.20 
   1   7  14   11.10   14.20 
  -2   7  14  100.59   24.90 
   2  -7  14   98.09   25.20 
  -2  -7  14   75.39   21.80 
   2   7  14  101.99   27.80 
  -2   7 -14   81.79   24.70 
  -3   7  14   27.70   16.00 
   3  -7  14   42.30   18.90 
  -3   7 -14   77.69   24.50 
  -3  -7  14   31.00   17.00 
   3   7  14   66.09   24.80 
  -4   7  14   14.90   14.20 
   4  -7  14    6.20   13.10 
  -4  -7  14    6.70   14.00 
   4   7  14   -2.90   14.60 
  -4   7 -14   -3.40   13.70 
  -5   7  14   52.69   24.20 
  -5   7 -14   25.60   19.60 
   5   7  14   35.10   22.90 
  -5  -7  14   21.80   18.20 
  -6  -7 -14   -0.30   16.90 
   0  -8  14   17.10   14.30 
   0   8  14   42.30   20.50 
  -1   8  14   58.39   19.40 
   1  -8  14   32.20   16.30 
   1   8  14   17.50   17.90 
  -1  -8  14   31.20   18.20 
  -2   8  14   14.40   14.50 
   2  -8  14    0.20   11.20 
   2   8  14   11.40   16.30 
  -2   8 -14   26.40   18.10 
  -2  -8  14   18.30   16.50 
   3  -8  14   62.19   22.10 
  -3   8  14   26.10   16.30 
   3   8  14   29.70   20.30 
  -3   8 -14   57.89   22.70 
  -3  -8  14   17.00   15.60 
  -4   8  14   22.60   19.80 
   4  -8  14    4.90   17.20 
   4   8  14    2.00   16.60 
  -4  -8  14  -11.50   13.40 
  -4   8 -14   13.90   16.90 
  -5   8  14   35.20   19.50 
   5   8  14   17.40   21.60 
  -5  -8  14   31.50   23.10 
  -5   8 -14   24.70   19.80 
   0   9  14   63.79   23.20 
   0  -9  14   49.00   20.90 
   1  -9  14    8.60   15.60 
  -1   9  14   19.10   16.10 
  -1  -9  14   21.40   18.80 
   1   9  14   16.50   16.50 
  -2   9  14   28.70   17.90 
   2  -9  14   26.00   18.40 
  -2  -9  14    0.10   11.60 
   2   9  14   34.90   20.20 
  -2   9 -14   11.70   15.00 
   3  -9  14   16.70   18.70 
  -3  -9  14   -4.00   13.50 
  -3   9 -14   45.80   22.20 
   3   9  14    7.10   16.20 
  -4   9  14   12.10   17.10 
   4   9  14   37.60   21.90 
  -4   9 -14    2.80   15.80 
  -4  -9  14   28.20   19.10 
   0 -10  14   35.70   20.20 
   0  10  14   30.30   18.00 
  -1  10  14    6.40   14.20 
   1 -10  14   14.60   17.50 
  -1  10 -14   10.90   16.10 
  -1 -10  14    6.80   15.00 
   1  10  14    0.60   14.10 
  -2  10  14    5.50   15.50 
   2 -10  14  -14.60   10.80 
  -2  10 -14    5.70   15.60 
  -2 -10  14    7.20   14.60 
   2  10  14   -5.30   15.30 
   3 -10  14   21.10   19.80 
   3  10  14   52.69   21.50 
  -3 -10  14   21.10   18.20 
  -3  10 -14   13.70   18.20 
   0  11  14   40.30   21.60 
   0 -11  14   33.90   20.20 
   1 -11  14    4.60   16.70 
  -1  11  14    4.20   15.70 
   1  11  14    6.10   16.50 
  -1  11 -14   16.50   18.80 
  -1 -11  14   -3.60   15.30 
   0   0  15   -2.80    9.70 
  -1   0  15    2.80   10.50 
   1   0  15    9.80   11.40 
   2   0  15  203.08   35.40 
  -2   0  15  290.67   41.60 
   3   0  15    5.20   12.80 
  -3   0  15   -9.00    9.10 
   4   0  15   36.50   19.20 
  -4   0  15   12.90   13.90 
  -4   0  15   16.00   13.00 
  -5   0  15   -3.50   12.70 
  -5   0 -15    8.80   14.10 
   5   0  15   -5.00   12.10 
  -5   0  15   -3.60   12.40 
  -6   0  15   -3.80   14.50 
   6   0  15   23.70   18.70 
  -6   0 -15   -0.80   13.10 
   0   1  15    5.20   10.60 
   0  -1  15    0.60    9.20 
  -1   1  15   63.59   19.60 
   1  -1  15   80.49   22.90 
  -1  -1  15   10.50   11.60 
   1   1  15   28.90   14.60 
  -2   1  15   91.49   23.50 
   2  -1  15   64.39   20.80 
   2   1  15   50.99   18.90 
  -2  -1  15   50.59   17.40 
  -3   1  15    8.80   11.80 
   3  -1  15    6.00   11.50 
  -3  -1  15   22.10   14.20 
   3   1  15    2.90   10.90 
  -4   1  15  142.89   28.60 
   4  -1  15  168.48   32.80 
  -4   1  15  174.18   31.10 
  -4  -1  15  112.99   26.50 
  -4  -1  15  104.49   25.20 
   4   1  15  162.28   33.90 
   5  -1  15   93.39   26.50 
  -5   1  15   48.70   19.70 
  -5  -1 -15  101.89   26.70 
  -5  -1  15   45.70   19.90 
  -5   1 -15   80.09   23.40 
   5   1  15  103.29   29.90 
  -5  -1  15   57.09   20.70 
   6  -1  15   46.50   23.70 
  -6  -1 -15   69.59   21.90 
  -6   1  15   69.19   25.10 
   6   1  15   77.49   27.50 
  -6   1 -15   57.59   20.10 
  -6  -1  15   57.49   23.50 
   0  -2  15   -5.90    8.50 
   0   2  15   -1.30    8.90 
   1  -2  15    3.70   10.30 
  -1   2  15   44.10   17.60 
   1   2  15   21.00   15.70 
  -1  -2  15   38.30   16.50 
   2  -2  15   34.50   18.10 
  -2   2  15   41.20   16.70 
  -2  -2  15   26.20   15.00 
   2   2  15    1.00   12.10 
   3  -2  15   14.40   14.60 
  -3   2  15   12.70   11.40 
  -3  -2  15    6.20   11.00 
   3   2  15    0.60   14.10 
  -3  -2  15   -0.80    9.60 
  -4   2  15   17.30   13.40 
  -4   2  15   -2.10   11.70 
   4  -2  15   21.40   15.00 
   4   2  15   -4.20   13.30 
  -4  -2  15   -4.10   10.80 
  -4  -2  15    7.20   13.60 
  -5  -2 -15    8.40   15.20 
  -5   2  15   -8.00   11.80 
   5  -2  15   15.70   16.70 
   5   2  15   13.10   13.90 
  -5   2 -15   -6.60   12.60 
  -5  -2  15    1.80   14.00 
  -5  -2  15   12.00   15.10 
  -6   2  15    8.90   16.70 
  -6  -2 -15   21.60   16.60 
  -6   2 -15   48.80   20.50 
   6   2  15   87.69   28.00 
  -6  -2  15   33.00   19.60 
   0   3  15    3.20   10.10 
   0  -3  15   -2.50   10.60 
  -1   3  15   90.99   24.40 
   1  -3  15   43.20   17.70 
   1   3  15   83.89   24.40 
  -1  -3  15   94.29   25.70 
   2  -3  15    5.60   11.50 
  -2   3  15   11.10   11.40 
   2   3  15   14.40   12.60 
  -2  -3  15    9.40   12.50 
  -3   3  15    8.70   12.00 
   3  -3  15   32.20   16.40 
  -3  -3  15   24.00   14.60 
   3   3  15   17.60   14.60 
  -4   3  15   46.20   19.30 
   4  -3  15   78.19   24.30 
  -4   3  15   97.89   25.10 
   4   3  15  128.49   30.10 
  -4  -3  15  116.09   27.60 
  -5  -3 -15   19.40   14.80 
  -5   3  15    9.50   15.40 
   5  -3  15   12.40   14.70 
  -5  -3  15    1.70   13.90 
   5   3  15   42.50   22.10 
  -6   3  15  119.89   31.60 
  -6  -3 -15   42.10   21.50 
   6   3  15   43.20   21.60 
   0  -4  15  -11.90    8.90 
   0   4  15   -0.10   10.00 
  -1   4  15    8.40   13.20 
   1  -4  15   36.50   19.60 
  -1  -4  15   58.59   20.10 
   1   4  15    5.60   10.80 
   2  -4  15  167.38   32.20 
  -2   4  15  157.08   29.70 
   2   4  15  202.88   36.90 
  -2  -4  15  148.19   31.20 
  -3   4  15    2.40   12.00 
   3  -4  15    7.10   12.30 
  -3  -4  15   30.70   17.40 
   3   4  15   24.20   17.30 
  -4   4  15   49.00   19.20 
  -4   4  15   51.89   20.00 
   4  -4  15   88.89   24.80 
   4   4  15   36.40   18.50 
  -4  -4  15   25.00   16.70 
  -5   4  15   20.00   17.90 
   5  -4  15   36.30   19.70 
  -5  -4  15   15.70   17.90 
   5   4  15   12.10   14.00 
  -6  -4 -15   -5.60   12.10 
  -6   4  15   14.70   15.80 
  -6  -4  15   16.10   18.30 
   6   4  15   38.20   20.80 
   0   5  15   -3.20   12.40 
   0  -5  15   -2.60    9.70 
   1  -5  15    3.50   11.80 
  -1   5  15   26.20   14.60 
  -1  -5  15   44.50   17.10 
   1   5  15   17.40   13.80 
   2  -5  15  102.59   26.80 
  -2   5  15   61.09   20.30 
   2   5  15   84.69   26.40 
  -2  -5  15   38.90   17.50 
   3  -5  15   96.49   25.90 
  -3   5  15   39.50   17.10 
  -3  -5  15   16.90   14.20 
   3   5  15   76.29   24.10 
   4  -5  15   51.79   20.80 
  -4   5  15   61.89   23.30 
  -4   5 -15   87.49   26.70 
   4   5  15   65.99   24.90 
  -4  -5  15   38.70   18.90 
  -5   5  15  160.48   34.90 
  -5  -5  15  130.89   31.50 
   5   5  15   90.59   28.70 
  -6  -5 -15   12.20   19.00 
   0   6  15   -3.80    9.90 
   0  -6  15    2.40   11.30 
  -1   6  15  142.89   29.80 
   1  -6  15  224.78   37.70 
  -1  -6  15  176.68   34.00 
   1   6  15  129.69   30.40 
  -2   6  15   -0.70   11.00 
   2  -6  15   -8.60    9.90 
  -2  -6  15  -10.80    9.50 
   2   6  15   -8.40   10.90 
  -3   6  15   11.80   14.90 
   3  -6  15   32.80   18.90 
   3   6  15   28.50   18.80 
  -3  -6  15   20.90   15.20 
   4  -6  15   10.60   14.60 
  -4   6  15   30.10   19.70 
  -4   6 -15   10.10   18.30 
  -4  -6  15    2.90   14.40 
   4   6  15   14.20   19.50 
  -5   6  15   27.20   19.10 
  -5  -6  15   12.60   18.20 
   5   6  15   29.40   21.20 
  -5   6 -15   13.00   28.60 
   0   7  15    5.20   11.50 
   0  -7  15   16.80   15.30 
   1  -7  15   33.80   17.20 
  -1   7  15   40.40   18.90 
   1   7  15   20.10   14.70 
  -1  -7  15   48.30   20.40 
   2  -7  15    3.70   12.40 
  -2   7  15    3.70   10.90 
   2   7  15    8.40   14.40 
  -2  -7  15   13.60   14.20 
   3  -7  15   40.80   20.40 
  -3   7  15   -4.40   14.30 
  -3   7 -15    2.20   15.60 
  -3  -7  15   12.50   15.80 
   3   7  15   20.30   17.20 
   4  -7  15    9.00   14.30 
  -4   7  15   10.60   14.50 
  -4  -7  15   -0.10   14.70 
  -4   7 -15    3.00   18.10 
   4   7  15    5.40   14.90 
   0   8  15   -4.50   14.00 
   0  -8  15   -0.70   12.90 
   1  -8  15   94.39   26.80 
  -1   8  15   32.20   18.90 
   1   8  15   54.99   22.70 
  -1  -8  15   62.59   24.90 
  -2   8  15   96.69   26.10 
   2  -8  15   31.10   19.00 
   2   8  15   47.90   24.00 
  -2  -8  15   84.39   26.40 
   3  -8  15   60.79   24.60 
  -3   8 -15  103.29   31.00 
  -3  -8  15   63.59   24.00 
   3   8  15  121.89   34.40 
   4  -8  15    2.60   16.30 
  -4   8  15   13.70   17.30 
  -4   8 -15   14.00   19.80 
   4   8  15   46.60   24.80 
  -4  -8  15   24.90   19.40 
   0  -9  15   -1.50   14.00 
   0   9  15    3.70   14.50 
  -1   9  15   31.70   19.40 
   1  -9  15   31.10   20.00 
   1   9  15   17.20   17.70 
  -1  -9  15   23.20   20.40 
   2  -9  15   62.39   24.30 
  -2   9  15   39.10   20.30 
  -2   9 -15   45.80   22.60 
   2   9  15   43.00   22.50 
  -2  -9  15   50.79   23.50 
   3  -9  15   10.30   15.90 
  -3   9 -15   21.20   19.60 
   3   9  15   41.70   23.10 
  -3  -9  15   20.30   21.40 
   0 -10  15   -8.00   13.90 
   0  10  15    3.30   16.30 
   0   0  16   47.10   18.80 
  -1   0  16   -2.40   10.90 
   1   0  16   -4.80    8.50 
  -2   0  16   16.40   14.10 
   2   0  16    1.70   12.40 
  -3   0  16   -0.80   11.20 
   3   0  16   -0.20   11.30 
  -4   0  16  178.58   32.20 
   4   0  16  242.68   40.80 
  -4   0  16  156.38   31.40 
  -5   0  16   -8.10   12.40 
  -5   0  16  -17.20   13.90 
   5   0  16    1.90   13.00 
  -6   0 -16  208.18   39.80 
   0   1  16  395.96   50.39 
   0  -1  16  452.05   54.49 
   1  -1  16   16.50   15.80 
  -1   1  16   24.50   15.70 
   1   1  16   14.60   15.40 
  -1  -1  16   11.60   12.50 
  -2   1  16  202.58   35.10 
   2  -1  16  225.78   39.40 
   2   1  16  195.98   35.30 
  -2  -1  16  206.98   35.40 
   3  -1  16   30.60   16.90 
  -3   1  16   16.90   15.50 
   3   1  16   28.30   17.00 
  -3  -1  16   54.19   20.70 
   4  -1  16   86.79   26.20 
  -4   1  16   43.60   19.90 
  -4   1  16   54.49   20.40 
   4   1  16  101.89   30.00 
  -4  -1  16   76.29   23.10 
  -4  -1  16   81.39   25.50 
   5  -1  16    6.80   17.70 
  -5   1  16    2.00   14.70 
   5   1  16    4.60   17.80 
  -5  -1  16    8.90   14.20 
  -5  -1  16   -0.70   13.00 
  -6  -1 -16   19.30   17.70 
  -6   1 -16    6.60   17.00 
   0  -2  16  148.29   30.70 
   0   2  16  123.29   28.50 
   1  -2  16   -0.30   10.20 
  -1   2  16    3.70   11.40 
   1   2  16   -4.50   10.20 
  -1  -2  16    0.00   10.90 
  -2   2  16   26.80   14.50 
   2  -2  16   38.90   17.90 
   2   2  16   26.60   16.60 
  -2  -2  16   33.70   16.60 
  -3   2  16   -3.60   10.60 
   3  -2  16    8.80   12.90 
  -3  -2  16    1.50   13.00 
   3   2  16   -1.10   12.30 
  -3  -2  16   14.40   13.00 
  -4   2  16   27.00   18.00 
   4  -2  16   62.09   23.60 
  -4   2  16   43.30   20.50 
  -4  -2  16   61.79   21.90 
   4   2  16   19.20   16.50 
  -4  -2  16   84.99   25.10 
  -5   2  16  -10.90   11.40 
   5  -2  16  -10.50   15.50 
  -5  -2  16   -3.70   13.80 
   5   2  16   -7.90   15.70 
  -5  -2  16   -9.00   13.60 
   0   3  16  268.47   42.90 
   0  -3  16  184.18   35.40 
   1  -3  16   14.90   13.10 
  -1   3  16   48.50   19.30 
  -1  -3  16   12.90   14.00 
   1   3  16    6.10   12.00 
  -2   3  16  164.28   32.30 
   2  -3  16  137.89   31.20 
   2   3  16  130.79   31.20 
  -2  -3  16  151.48   33.10 
   3  -3  16    3.50   12.60 
  -3   3  16   47.40   19.50 
  -3  -3  16   28.30   18.20 
   3   3  16   10.70   15.20 
  -4   3  16   65.59   22.90 
  -4   3  16   53.19   21.10 
   4  -3  16   44.80   21.20 
  -4  -3  16   47.10   19.50 
   4   3  16   89.19   26.40 
   5  -3  16    1.30   16.10 
  -5   3  16    4.00   13.50 
   5   3  16    4.10   15.10 
  -5  -3  16   17.10   18.60 
   0   4  16   10.10   12.70 
   0  -4  16   -5.60    9.20 
  -1   4  16    1.40   12.30 
   1  -4  16   14.90   12.80 
   1   4  16   25.30   14.80 
  -1  -4  16   -3.70   10.90 
  -2   4  16  -11.60    9.00 
   2  -4  16   -1.30   11.60 
   2   4  16   -3.40   10.70 
  -2  -4  16  -12.70    8.20 
  -3   4  16   19.70   14.20 
   3  -4  16   47.20   20.40 
   3   4  16  -16.10   11.90 
  -3  -4  16    9.80   12.80 
  -4   4  16  113.29   28.20 
   4  -4  16  121.29   31.00 
  -4   4  16  173.38   38.30 
  -4  -4  16  132.99   32.00 
   4   4  16  120.89   32.70 
  -5   4  16    9.50   18.20 
   5  -4  16   34.50   22.90 
  -5  -4  16    0.80   15.10 
   5   4  16   -1.10   15.50 
   0   5  16  146.39   32.30 
   0  -5  16  200.08   37.50 
  -1   5  16   41.50   18.80 
   1  -5  16   54.79   21.50 
  -1  -5  16   65.69   22.70 
   1   5  16   59.59   21.70 
   2  -5  16   96.49   26.90 
  -2   5  16  118.39   29.30 
   2   5  16  131.39   31.10 
  -2  -5  16   86.59   25.40 
  -3   5  16   21.50   17.10 
   3  -5  16   33.00   18.40 
   3   5  16   10.60   13.90 
  -3  -5  16   19.60   16.50 
   4  -5  16   10.10   16.30 
  -4   5  16    4.40   15.40 
  -4  -5  16   15.70   21.10 
   4   5  16    8.40   15.30 
   0  -6  16   45.00   20.40 
   0   6  16    9.70   14.70 
   1  -6  16    3.00   13.50 
  -1   6  16   24.40   18.10 
   1   6  16    2.70   11.90 
  -1  -6  16   24.30   18.70 
   2  -6  16   13.70   15.90 
  -2   6  16    5.70   13.20 
   2   6  16   26.60   16.70 
  -2  -6  16   22.50   17.40 
   3  -6  16   15.00   16.90 
  -3   6  16   39.90   19.40 
   3   6  16   55.89   22.90 
  -3  -6  16   17.90   17.80 
  -4   6  16    8.50   15.90 
   4  -6  16    9.80   18.40 
  -4  -6  16   51.59   23.70 
   4   6  16   34.90   20.40 
   0  -7  16  129.39   32.30 
   0   7  16  114.89   30.50 
  -1   7  16   12.20   15.60 
   1  -7  16   -2.80   14.50 
  -1  -7  16   20.20   17.30 
   1   7  16    0.80   15.00 
   2  -7  16   41.20   20.90 
  -2   7  16   52.99   20.70 
  -2  -7  16  -14.30   11.80 
   2   7  16   49.20   23.20 
   3  -7  16   34.10   20.80 
  -3   7  16   22.60   18.00 
   3   7  16   21.00   20.00 
  -3  -7  16    2.80   16.60 
   0   8  16    6.10   14.90 
   0  -8  16    0.70   12.40 
  -1   8  16    7.20   14.90 
   1  -8  16    9.80   15.00 
   1   8  16   15.60   19.70 
  -1  -8  16   -8.50   11.90 
  -2   8  16  -14.40   12.10 
   2  -8  16   30.50   19.40 
   2   8  16   11.80   18.50 
  -2  -8  16   -0.40   14.40 
   0   0  17    3.60   12.20 
  -1   0  17    4.40   14.30 
   1   0  17    2.30   12.60 
   2   0  17   -3.90   12.70 
  -2   0  17   -3.30   12.80 
  -3   0  17    1.70   13.30 
   3   0  17  -13.20   11.20 
  -4   0  17   -1.00   12.40 
   4   0  17   13.30   14.90 
  -4   0  17    2.60   15.50 
   0  -1  17    2.70   13.00 
   0   1  17   -9.00   10.90 
  -1   1  17   21.10   15.20 
   1  -1  17   41.10   19.00 
   1   1  17   12.30   12.90 
  -1  -1  17   46.40   19.50 
   2  -1  17    2.50   13.80 
  -2   1  17   45.30   21.40 
   2   1  17   38.30   17.70 
  -2  -1  17   63.59   22.40 
  -3   1  17   -1.80   12.20 
   3  -1  17  -13.00   11.10 
  -3  -1  17   -6.10   12.00 
  -3  -1  17    4.20   13.70 
   3   1  17   12.60   16.20 
  -4   1  17   67.59   23.50 
   4  -1  17   36.70   20.70 
  -4   1  17   52.09   21.40 
  -4  -1  17   30.40   18.20 
   4   1  17   65.39   24.60 
  -4  -1  17   76.09   26.80 
   0   2  17   -3.20    9.70 
   0  -2  17   -7.00   11.10 
   1  -2  17   11.10   14.30 
  -1   2  17    6.20   12.70 
  -1  -2  17   15.60   14.60 
   1   2  17   -9.70   11.00 
  -2   2  17  194.08   35.60 
   2  -2  17  207.18   39.90 
   2   2  17  144.29   33.80 
  -2  -2  17  135.89   31.40 
   3  -2  17   47.60   25.00 
  -3   2  17    3.30   15.10 
   3   2  17   24.60   20.80 
  -3  -2  17    5.20   15.60 
  -4   2  17    8.20   15.80 
   4  -2  17   47.40   23.70 
  -4   2  17   22.00   17.30 
  -4  -2  17   29.00   19.00 
   4   2  17   30.40   21.80 
   0   3  17    7.70   13.00 
   0  -3  17   -8.10   11.00 
   1  -3  17   14.10   14.40 
  -1   3  17    6.20   11.90 
   1   3  17   30.70   18.10 
  -1  -3  17   32.40   18.70 
   2  -3  17   95.29   26.30 
  -2   3  17   35.40   18.30 
   2   3  17  103.29   29.90 
  -2  -3  17   94.79   27.60 
   3  -3  17   21.00   18.30 
  -3   3  17   38.10   21.10 
   3   3  17    6.10   17.10 
  -3  -3  17   20.50   17.90 
   4  -3  17   -6.90   16.20 
  -4   3  17   37.70   21.80 
  -4   3  17   37.90   20.30 
  -4  -3  17   16.90   18.10 
   4   3  17   44.50   22.70 
   0   4  17   -2.70   11.10 
   0  -4  17   -5.00   11.80 
  -1   4  17   27.20   15.60 
   1  -4  17   46.30   22.40 
   1   4  17   75.89   24.60 
  -1  -4  17   20.70   16.40 
  -2   4  17    2.70   13.60 
   2  -4  17    0.20   13.40 
  -2  -4  17   15.30   15.30 
   2   4  17   -1.20   14.20 
   3  -4  17   -4.20   12.90 
  -3   4  17    5.80   15.80 
   3   4  17   21.70   20.90 
  -3  -4  17   23.50   19.40 
  -4   4  17   10.50   17.20 
   4   4  17    9.70   18.90 
   0  -5  17   -2.50   15.60 
   0   5  17  -11.80   13.80 
   1  -5  17   53.79   24.00 
  -1   5  17   55.99   23.80 
  -1  -5  17   58.99   22.60 
   1   5  17   61.49   24.60 
  -2   5  17   10.10   14.10 
   2  -5  17    6.00   16.00 
   2   5  17   -5.10   14.20 
  -2  -5  17   16.00   14.80 
   3  -5  17   16.00   17.40 
  -3   5  17    4.40   15.40 
  -3  -5  17    4.80   14.30 
   3   5  17  -16.70   14.40 
   0  -6  17    4.90   14.70 
   0   6  17   18.20   17.70 
  -1   6  17   19.80   18.80 
   1  -6  17   31.20   19.30 
  -1  -6  17   60.89   23.80 
   1   6  17   29.10   19.10 
   2  -6  17   23.90   20.40 
  -2   6  17   -2.60   12.20 
  -2  -6  17   50.39   23.60 
   2   6  17   35.00   21.00 
   0  -7  17   -0.90   19.30 
   0   7  17    2.80   14.20 
  -1   7  17    4.60   15.60 
   1   7  17   -3.00   12.70 
   0   0  18   72.29   24.80 
  -1   0  18    0.70   13.00 
   1   0  18   -6.90   14.90 
   2   0  18   -1.50   15.20 
  -2   0  18    4.40   14.10 
  -3   0  18   -6.90   14.20 
   3   0  18   -6.30   15.10 
   0   1  18  149.49   33.50 
   0  -1  18  129.49   31.30 
   1  -1  18   11.90   17.30 
  -1   1  18   21.40   17.70 
  -1  -1  18    8.20   14.80 
   1   1  18   17.10   16.70 
   2  -1  18  173.88   36.70 
  -2   1  18  108.89   29.60 
  -2  -1  18  132.89   32.70 
   2   1  18   89.39   28.30 
  -3   1  18    9.30   16.00 
   3  -1  18   42.20   22.20 
  -3  -1  18   -2.90   14.00 
  -3  -1  18   11.10   16.10 
   3   1  18   20.10   17.80 
   0   2  18   27.40   17.80 
   0  -2  18   64.69   23.60 
  -1   2  18   12.00   15.90 
   1  -2  18   -8.30   11.30 
   1   2  18   -6.40   11.50 
  -1  -2  18   -1.30   15.10 
   2  -2  18   -2.00   15.70 
  -2   2  18    1.60   15.70 
  -2  -2  18    6.20   13.60 
   2   2  18    7.90   12.60 
   0   3  18  108.29   30.20 
   0  -3  18  144.59   33.10 
  -1   3  18   14.50   15.00 
   1  -3  18   -7.70   11.30 
   1   3  18   15.60   16.50 
  -1  -3  18   25.50   17.40 
   2  -3  18  144.79   36.60 
  -2   3  18  106.69   28.50 
  -2  -3  18  137.39   34.30 
   2   3  18  141.39   33.20 
   0   4  18   70.99   25.80 
   0  -4  18   56.19   24.20 
   1  -4  18   29.30   20.60 
  -1   4  18   12.30   15.10 
   1   4  18   17.60   19.20 
  -1  -4  18    3.20   14.10 
   0   0   0    0.00    0.00 
  
_computing_structure_solution     'SHELXT 2014/5 (Sheldrick, 2014)' 
;
_shelx_hkl_checksum              82335
loop_
_space_group_symop_operation_xyz
'x, y, z'
'-x, -y, z+1/2'
'x+1/2, -y, z'
'-x+1/2, y, z+1/2'
loop_
_atom_site_label
_atom_site_type_symbol
_atom_site_fract_x
_atom_site_fract_y
_atom_site_fract_z
_atom_site_U_iso_or_equiv
_atom_site_adp_type
_atom_site_occupancy
_atom_site_site_symmetry_order
_atom_site_calc_flag
_atom_site_refinement_flags_posn
_atom_site_refinement_flags_adp
_atom_site_refinement_flags_occupancy
_atom_site_disorder_assembly
_atom_site_disorder_group
Cs1 Cs 0.48624(13) 0.47675(8) 0.47258(8) 0.0310(3) Uani 1 1 d . . . . .
Cs2 Cs 0.61352(13) 0.76427(8) 0.26414(9) 0.0317(3) Uani 1 1 d . . . . .
Cs3 Cs 0.43471(14) 1.01521(8) 0.50009(8) 0.0335(3) Uani 1 1 d . . . . .
B1 B -0.030(2) 0.4325(15) 0.7244(13) 0.019(4) Uani 1 1 d . . . . .
B2 B 0.218(2) 0.5075(15) 0.7278(16) 0.020(4) Uani 1 1 d . U . . .
B3 B 0.278(2) 0.6504(14) 0.6250(13) 0.020(4) Uani 1 1 d . . . . .
B4 B 0.211(2) 0.8357(15) 0.6146(13) 0.016(4) Uani 1 1 d . U . . .
B5 B 0.247(3) 0.7371(14) 0.4762(16) 0.020(4) Uani 1 1 d . . . . .
B6 B 0.202(2) 0.8175(14) 0.3331(13) 0.015(4) Uani 1 1 d . U . . .
B7 B 0.002(2) 0.9250(13) 0.2680(13) 0.016(4) Uani 1 1 d . . . . .
B8 B 0.274(2) 0.9651(15) 0.2400(14) 0.022(5) Uani 1 1 d . U . . .
N1 N 0.731(2) 0.7450(13) 0.4996(12) 0.041(5) Uani 1 1 d . . . . .
O1 O -0.0618(12) 0.3703(9) 0.6551(8) 0.026(3) Uani 1 1 d . . . . .
O2 O 0.1164(12) 0.4360(8) 0.7618(9) 0.021(2) Uani 1 1 d . . . . .
O3 O 0.3600(14) 0.5075(8) 0.7668(9) 0.023(3) Uani 1 1 d . . . . .
O4 O 0.1773(13) 0.5716(8) 0.6600(8) 0.026(3) Uani 1 1 d . . . . .
O5 O 0.2320(14) 0.7504(9) 0.6636(8) 0.026(3) Uani 1 1 d . . . . .
O6 O 0.2748(13) 0.6509(7) 0.5256(7) 0.021(3) Uani 1 1 d . . . . .
O7 O 0.6934(17) 0.6660(10) 0.4602(12) 0.051(4) Uani 1 1 d . . . . .
O8 O 0.845(2) 0.7460(12) 0.5504(13) 0.066(6) Uani 1 1 d . . . . .
O9 O 0.6616(17) 0.8274(11) 0.4817(13) 0.066(5) Uani 1 1 d . . . . .
O10 O 0.1803(12) 0.9294(8) 0.6474(7) 0.020(3) Uani 1 1 d . . . . .
O11 O 0.2157(12) 0.8289(8) 0.5182(9) 0.023(3) Uani 1 1 d . . . . .
O12 O 0.2397(13) 0.7310(8) 0.3822(8) 0.023(3) Uani 1 1 d . . . . .
O13 O 0.3089(12) 0.8878(8) 0.3105(8) 0.019(3) Uani 1 1 d . . . . .
O14 O 0.1123(13) 0.9900(8) 0.2350(9) 0.021(3) Uani 1 1 d . . . . .
O15 O -0.1460(12) 0.9396(8) 0.2615(10) 0.024(3) Uani 1 1 d . . . . .
O16 O 0.0491(11) 0.8350(8) 0.3144(7) 0.020(3) Uani 1 1 d . . . . .
loop_
_atom_site_aniso_label
_atom_site_aniso_U_11
_atom_site_aniso_U_22
_atom_site_aniso_U_33
_atom_site_aniso_U_23
_atom_site_aniso_U_13
_atom_site_aniso_U_12
Cs1 0.0302(7) 0.0343(6) 0.0284(6) -0.0036(6) -0.0021(5) 0.0057(5)
Cs2 0.0328(6) 0.0297(6) 0.0326(6) -0.0001(6) -0.0016(6) 0.0011(5)
Cs3 0.0316(6) 0.0340(7) 0.0350(7) 0.0017(6) -0.0034(5) -0.0103(5)
B1 0.023(11) 0.020(11) 0.015(10) -0.003(7) 0.000(8) -0.005(9)
B2 0.021(5) 0.020(5) 0.019(5) -0.001(3) -0.001(3) 0.001(3)
B3 0.027(12) 0.018(11) 0.013(10) 0.007(8) -0.005(8) 0.001(8)
B4 0.016(5) 0.016(5) 0.016(5) 0.001(3) -0.001(3) 0.000(3)
B5 0.028(12) 0.017(10) 0.015(9) -0.002(9) 0.002(9) 0.004(8)
B6 0.015(5) 0.016(5) 0.015(5) 0.000(3) -0.002(3) 0.002(3)
B7 0.019(9) 0.014(9) 0.016(9) 0.003(8) -0.005(9) -0.012(7)
B8 0.022(5) 0.022(5) 0.022(6) -0.002(3) 0.001(3) 0.001(3)
N1 0.056(15) 0.042(10) 0.024(12) 0.009(10) -0.002(10) -0.007(9)
O1 0.017(6) 0.028(7) 0.032(7) -0.002(6) -0.009(5) 0.003(5)
O2 0.015(6) 0.027(6) 0.019(6) 0.007(6) -0.009(5) -0.002(5)
O3 0.016(6) 0.032(6) 0.021(6) 0.012(6) -0.005(5) 0.000(5)
O4 0.031(7) 0.024(7) 0.022(7) 0.009(5) -0.004(6) -0.003(6)
O5 0.043(8) 0.017(7) 0.017(7) 0.003(5) -0.003(6) 0.004(5)
O6 0.033(8) 0.019(6) 0.010(6) -0.001(5) -0.001(5) 0.007(5)
O7 0.067(11) 0.038(8) 0.047(11) -0.008(8) -0.015(9) -0.005(8)
O8 0.068(13) 0.067(12) 0.062(13) -0.003(9) -0.041(10) 0.005(9)
O9 0.071(12) 0.043(9) 0.082(16) -0.006(10) -0.014(11) 0.016(9)
O10 0.021(6) 0.024(6) 0.015(6) 0.006(5) -0.007(5) 0.008(5)
O11 0.032(8) 0.021(6) 0.017(7) 0.002(6) 0.001(6) 0.004(5)
O12 0.023(7) 0.020(7) 0.025(7) 0.000(6) -0.002(5) 0.008(5)
O13 0.015(6) 0.019(6) 0.023(7) 0.000(5) -0.004(5) 0.000(5)
O14 0.009(5) 0.020(6) 0.033(8) 0.011(5) -0.005(5) 0.006(5)
O15 0.022(7) 0.020(6) 0.029(7) 0.013(6) 0.006(6) 0.004(5)
O16 0.011(6) 0.023(6) 0.026(7) 0.009(5) 0.006(5) -0.001(5)
loop_
_atom_type_symbol
_atom_type_description
_atom_type_scat_dispersion_real
_atom_type_scat_dispersion_imag
_atom_type_scat_source
B B 0.0013 0.0007 'International Tables Vol C Tables 4.2.6.8 and 6.1.1.4'
Cs Cs -0.3680 2.1192 'International Tables Vol C Tables 4.2.6.8 and 6.1.1.4'
O O 0.0106 0.0060 'International Tables Vol C Tables 4.2.6.8 and 6.1.1.4'
N N 0.0061 0.0033 'International Tables Vol C Tables 4.2.6.8 and 6.1.1.4'
loop_
_geom_angle_atom_site_label_1
_geom_angle_atom_site_label_2
_geom_angle_atom_site_label_3
_geom_angle
_geom_angle_site_symmetry_1
_geom_angle_site_symmetry_3
_geom_angle_publ_flag
O6 Cs1 O7 77.3(4) . . ?
O6 Cs1 O6 146.2(4) . 3_565 ?
O7 Cs1 O6 87.7(3) . 3_565 ?
O6 Cs1 O7 87.4(3) . 3_465 ?
O7 Cs1 O7 161.1(4) . 3_465 ?
O6 Cs1 O7 111.1(3) 3_565 3_465 ?
O6 Cs1 O2 101.2(3) . 4_554 ?
O7 Cs1 O2 103.9(4) . 4_554 ?
O6 Cs1 O2 111.9(3) 3_565 4_554 ?
O7 Cs1 O2 68.0(4) 3_465 4_554 ?
O6 Cs1 O4 104.2(3) . 3_565 ?
O7 Cs1 O4 84.2(4) . 3_565 ?
O6 Cs1 O4 43.5(3) 3_565 3_565 ?
O7 Cs1 O4 110.5(3) 3_465 3_565 ?
O2 Cs1 O4 154.5(3) 4_554 3_565 ?
O6 Cs1 O3 115.9(3) . 2_664 ?
O7 Cs1 O3 69.7(4) . 2_664 ?
O6 Cs1 O3 85.8(3) 3_565 2_664 ?
O7 Cs1 O3 108.4(4) 3_465 2_664 ?
O2 Cs1 O3 42.5(3) 4_554 2_664 ?
O4 Cs1 O3 124.3(3) 3_565 2_664 ?
O6 Cs1 O8 109.4(4) . 3_465 ?
O7 Cs1 O8 159.1(4) . 3_465 ?
O6 Cs1 O8 76.0(3) 3_565 3_465 ?
O7 Cs1 O8 38.2(4) 3_465 3_465 ?
O2 Cs1 O8 94.4(4) 4_554 3_465 ?
O4 Cs1 O8 75.0(3) 3_565 3_465 ?
O3 Cs1 O8 120.9(4) 2_664 3_465 ?
O6 Cs1 O1 43.6(3) . 3_565 ?
O7 Cs1 O1 69.2(4) . 3_565 ?
O6 Cs1 O1 102.7(3) 3_565 3_565 ?
O7 Cs1 O1 106.9(4) 3_465 3_565 ?
O2 Cs1 O1 144.5(3) 4_554 3_565 ?
O4 Cs1 O1 60.9(3) 3_565 3_565 ?
O3 Cs1 O1 137.6(3) 2_664 3_565 ?
O8 Cs1 O1 101.4(4) 3_465 3_565 ?
O6 Cs1 B5 164.3(4) . 3_565 ?
O7 Cs1 B5 104.1(4) . 3_565 ?
O6 Cs1 B5 21.8(4) 3_565 3_565 ?
O7 Cs1 B5 93.7(4) 3_465 3_565 ?
O2 Cs1 B5 93.7(4) 4_554 3_565 ?
O4 Cs1 B5 60.9(4) 3_565 3_565 ?
O3 Cs1 B5 78.5(4) 2_664 3_565 ?
O8 Cs1 B5 64.1(4) 3_465 3_565 ?
O1 Cs1 B5 121.8(4) 3_565 3_565 ?
O6 Cs1 B3 22.7(3) . . ?
O7 Cs1 B3 80.6(4) . . ?
O6 Cs1 B3 125.6(4) 3_565 . ?
O7 Cs1 B3 89.5(4) 3_465 . ?
O2 Cs1 B3 122.5(3) 4_554 . ?
O4 Cs1 B3 82.3(3) 3_565 . ?
O3 Cs1 B3 136.0(3) 2_664 . ?
O8 Cs1 B3 98.2(5) 3_465 . ?
O1 Cs1 B3 24.1(3) 3_565 . ?
B5 Cs1 B3 141.7(5) 3_565 . ?
O6 Cs1 N1 100.7(3) . 3_465 ?
O7 Cs1 N1 176.9(4) . 3_465 ?
O6 Cs1 N1 93.0(3) 3_565 3_465 ?
O7 Cs1 N1 18.8(3) 3_465 3_465 ?
O2 Cs1 N1 78.7(3) 4_554 3_465 ?
O4 Cs1 N1 94.2(3) 3_565 3_465 ?
O3 Cs1 N1 113.3(3) 2_664 3_465 ?
O8 Cs1 N1 19.7(4) 3_465 3_465 ?
O1 Cs1 N1 107.7(3) 3_565 3_465 ?
B5 Cs1 N1 77.3(4) 3_565 3_465 ?
B3 Cs1 N1 96.6(4) . 3_465 ?
O15 Cs2 O8 87.9(4) 1_655 4_654 ?
O15 Cs2 O13 101.7(3) 1_655 . ?
O8 Cs2 O13 110.2(4) 4_654 . ?
O15 Cs2 O7 98.9(3) 1_655 . ?
O8 Cs2 O7 145.8(4) 4_654 . ?
O13 Cs2 O7 101.2(3) . . ?
O15 Cs2 O14 43.4(3) 1_655 3_575 ?
O8 Cs2 O14 86.8(4) 4_654 3_575 ?
O13 Cs2 O14 61.7(3) . 3_575 ?
O7 Cs2 O14 120.8(3) . 3_575 ?
O15 Cs2 O9 75.1(4) 1_655 . ?
O8 Cs2 O9 162.7(4) 4_654 . ?
O13 Cs2 O9 77.2(3) . . ?
O7 Cs2 O9 38.3(4) . . ?
O14 Cs2 O9 83.1(3) 3_575 . ?
O15 Cs2 O5 130.1(3) 1_655 4_554 ?
O8 Cs2 O5 70.8(4) 4_654 4_554 ?
O13 Cs2 O5 50.6(3) . 4_554 ?
O7 Cs2 O5 124.2(3) . 4_554 ?
O14 Cs2 O5 89.6(3) 3_575 4_554 ?
O9 Cs2 O5 123.0(3) . 4_554 ?
O15 Cs2 O2 94.8(3) 1_655 2_664 ?
O8 Cs2 O2 81.7(4) 4_654 2_664 ?
O13 Cs2 O2 159.7(3) . 2_664 ?
O7 Cs2 O2 64.4(4) . 2_664 ?
O14 Cs2 O2 137.2(3) 3_575 2_664 ?
O9 Cs2 O2 96.1(3) . 2_664 ?
O5 Cs2 O2 124.2(3) 4_554 2_664 ?
O15 Cs2 O3 133.4(3) 1_655 2_664 ?
O8 Cs2 O3 85.9(3) 4_654 2_664 ?
O13 Cs2 O3 123.7(3) . 2_664 ?
O7 Cs2 O3 65.1(3) . 2_664 ?
O14 Cs2 O3 172.2(3) 3_575 2_664 ?
O9 Cs2 O3 103.2(3) . 2_664 ?
O5 Cs2 O3 90.6(3) 4_554 2_664 ?
O2 Cs2 O3 38.6(3) 2_664 2_664 ?
O15 Cs2 N1 82.4(4) 1_655 . ?
O8 Cs2 N1 155.1(5) 4_654 . ?
O13 Cs2 N1 94.2(4) . . ?
O7 Cs2 N1 19.7(3) . . ?
O14 Cs2 N1 101.3(4) 3_575 . ?
O9 Cs2 N1 20.5(3) . . ?
O5 Cs2 N1 132.1(4) 4_554 . ?
O2 Cs2 N1 76.4(4) 2_664 . ?
O3 Cs2 N1 84.3(3) 2_664 . ?
O15 Cs2 B4 109.4(4) 1_655 4_554 ?
O8 Cs2 B4 61.7(4) 4_654 4_554 ?
O13 Cs2 B4 49.8(3) . 4_554 ?
O7 Cs2 B4 142.4(4) . 4_554 ?
O14 Cs2 B4 70.8(4) 3_575 4_554 ?
O9 Cs2 B4 126.9(4) . 4_554 ?
O5 Cs2 B4 21.0(3) 4_554 4_554 ?
O2 Cs2 B4 134.2(4) 2_664 4_554 ?
O3 Cs2 B4 107.9(4) 2_664 4_554 ?
N1 Cs2 B4 143.2(4) . 4_554 ?
O15 Cs2 O12 133.5(3) 1_655 . ?
O8 Cs2 O12 123.4(4) 4_654 . ?
O13 Cs2 O12 39.1(3) . . ?
O7 Cs2 O12 74.6(3) . . ?
O14 Cs2 O12 100.0(3) 3_575 . ?
O9 Cs2 O12 72.4(3) . . ?
O5 Cs2 O12 53.4(2) 4_554 . ?
O2 Cs2 O12 120.7(2) 2_664 . ?
O3 Cs2 O12 86.4(3) 2_664 . ?
N1 Cs2 O12 78.7(4) . . ?
B4 Cs2 O12 67.9(3) 4_554 . ?
O11 Cs3 O10 123.3(3) . 3_575 ?
O11 Cs3 O9 78.2(3) . . ?
O10 Cs3 O9 78.6(4) 3_575 . ?
O11 Cs3 O9 92.4(3) . 3_475 ?
O10 Cs3 O9 115.6(4) 3_575 3_475 ?
O9 Cs3 O9 165.8(5) . 3_475 ?
O11 Cs3 O11 164.5(4) . 3_575 ?
O10 Cs3 O11 42.8(3) 3_575 3_575 ?
O9 Cs3 O11 90.6(4) . 3_575 ?
O9 Cs3 O11 100.5(3) 3_475 3_575 ?
O11 Cs3 O8 124.7(4) . 3_475 ?
O10 Cs3 O8 78.2(3) 3_575 3_475 ?
O9 Cs3 O8 154.1(4) . 3_475 ?
O9 Cs3 O8 39.3(4) 3_475 3_475 ?
O11 Cs3 O8 64.5(4) 3_575 3_475 ?
O11 Cs3 O10 42.3(3) . . ?
O10 Cs3 O10 95.6(3) 3_575 . ?
O9 Cs3 O10 102.8(4) . . ?
O9 Cs3 O10 76.1(4) 3_475 . ?
O11 Cs3 O10 133.1(3) 3_575 . ?
O8 Cs3 O10 90.6(4) 3_475 . ?
O11 Cs3 O13 59.3(3) . . ?
O10 Cs3 O13 153.2(3) 3_575 . ?
O9 Cs3 O13 76.1(4) . . ?
O9 Cs3 O13 90.0(4) 3_475 . ?
O11 Cs3 O13 128.6(3) 3_575 . ?
O8 Cs3 O13 124.2(3) 3_475 . ?
O10 Cs3 O13 98.3(3) . . ?
O11 Cs3 O14 76.6(3) . 4 ?
O10 Cs3 O14 54.9(3) 3_575 4 ?
O9 Cs3 O14 94.9(4) . 4 ?
O9 Cs3 O14 93.1(4) 3_475 4 ?
O11 Cs3 O14 94.0(3) 3_575 4 ?
O8 Cs3 O14 80.8(4) 3_475 4 ?
O10 Cs3 O14 40.8(3) . 4 ?
O13 Cs3 O14 135.9(3) . 4 ?
O11 Cs3 B4 23.9(4) . . ?
O10 Cs3 B4 102.3(4) 3_575 . ?
O9 Cs3 B4 83.0(5) . . ?
O9 Cs3 B4 92.6(4) 3_475 . ?
O11 Cs3 B4 145.1(4) 3_575 . ?
O8 Cs3 B4 113.0(5) 3_475 . ?
O10 Cs3 B4 22.5(3) . . ?
O13 Cs3 B4 83.2(4) . . ?
O14 Cs3 B4 52.7(4) 4 . ?
O11 Cs3 O16 132.9(3) . 3_575 ?
O10 Cs3 O16 101.9(3) 3_575 3_575 ?
O9 Cs3 O16 100.6(4) . 3_575 ?
O9 Cs3 O16 78.0(4) 3_475 3_575 ?
O11 Cs3 O16 59.2(3) 3_575 3_575 ?
O8 Cs3 O16 73.5(4) 3_475 3_575 ?
O10 Cs3 O16 153.1(2) . 3_575 ?
O13 Cs3 O16 74.6(2) . 3_575 ?
O14 Cs3 O16 148.8(3) 4 3_575 ?
B4 Cs3 O16 155.7(4) . 3_575 ?
O11 Cs3 B7 110.9(4) . 3_575 ?
O10 Cs3 B7 119.6(4) 3_575 3_575 ?
O9 Cs3 B7 89.1(4) . 3_575 ?
O9 Cs3 B7 84.4(4) 3_475 3_575 ?
O11 Cs3 B7 79.1(4) 3_575 3_575 ?
O8 Cs3 B7 92.7(4) 3_475 3_575 ?
O10 Cs3 B7 144.5(4) . 3_575 ?
O13 Cs3 B7 51.8(3) . 3_575 ?
O14 Cs3 B7 172.1(3) 4 3_575 ?
B4 Cs3 B7 134.7(4) . 3_575 ?
O16 Cs3 B7 23.3(3) 3_575 3_575 ?
O1 B1 O3 122.7(16) . 3_465 ?
O1 B1 O2 120.6(16) . . ?
O3 B1 O2 116.6(15) 3_465 . ?
O1 B1 Cs1 150.1(13) . 4 ?
O3 B1 Cs1 63.0(9) 3_465 4 ?
O2 B1 Cs1 61.0(9) . 4 ?
O1 B1 Cs1 57.8(9) . 3_465 ?
O3 B1 Cs1 106.3(11) 3_465 3_465 ?
O2 B1 Cs1 109.1(11) . 3_465 ?
Cs1 B1 Cs1 152.0(6) 4 3_465 ?
O4 B2 O3 123.1(17) . . ?
O4 B2 O2 121.0(16) . . ?
O3 B2 O2 115.9(17) . . ?
O4 B2 Cs2 140.3(13) . 2_665 ?
O3 B2 Cs2 66.0(9) . 2_665 ?
O2 B2 Cs2 65.3(9) . 2_665 ?
O4 B3 O6 110.0(14) . . ?
O4 B3 O5 108.6(15) . . ?
O6 B3 O5 111.8(13) . . ?
O4 B3 O1 110.2(13) . 3_565 ?
O6 B3 O1 108.3(14) . 3_565 ?
O5 B3 O1 107.9(14) . 3_565 ?
O4 B3 Cs1 94.8(10) . . ?
O6 B3 Cs1 53.5(8) . . ?
O5 B3 Cs1 156.2(11) . . ?
O1 B3 Cs1 66.3(9) 3_565 . ?
O4 B3 Cs1 58.8(8) . 3_465 ?
O6 B3 Cs1 53.0(8) . 3_465 ?
O5 B3 Cs1 115.0(10) . 3_465 ?
O1 B3 Cs1 137.1(11) 3_565 3_465 ?
Cs1 B3 Cs1 73.2(4) . 3_465 ?
O5 B4 O10 126.5(16) . . ?
O5 B4 O11 118.7(15) . . ?
O10 B4 O11 114.8(14) . . ?
O5 B4 Cs3 137.6(12) . . ?
O10 B4 Cs3 71.0(9) . . ?
O11 B4 Cs3 63.0(8) . . ?
O5 B4 Cs3 143.8(12) . 3_475 ?
O10 B4 Cs3 61.9(8) . 3_475 ?
O11 B4 Cs3 65.2(8) . 3_475 ?
Cs3 B4 Cs3 78.0(4) . 3_475 ?
O5 B4 Cs2 65.3(9) . 4 ?
O10 B4 Cs2 82.1(9) . 4 ?
O11 B4 Cs2 126.4(11) . 4 ?
Cs3 B4 Cs2 152.2(6) . 4 ?
Cs3 B4 Cs2 83.5(4) 3_475 4 ?
O6 B5 O11 121.4(18) . . ?
O6 B5 O12 119.3(15) . . ?
O11 B5 O12 119.2(16) . . ?
O6 B5 Cs1 59.0(9) . 3_465 ?
O11 B5 Cs1 123.7(12) . 3_465 ?
O12 B5 Cs1 85.0(10) . 3_465 ?
O13 B6 O12 120.9(15) . . ?
O13 B6 O16 120.8(15) . . ?
O12 B6 O16 118.0(15) . . ?
O13 B6 Cs2 53.1(8) . . ?
O12 B6 Cs2 76.2(9) . . ?
O16 B6 Cs2 153.4(11) . . ?
O15 B7 O14 125.8(15) . . ?
O15 B7 O16 116.4(14) . . ?
O14 B7 O16 117.8(14) . . ?
O15 B7 Cs3 82.7(10) . 3_475 ?
O14 B7 Cs3 108.6(10) . 3_475 ?
O16 B7 Cs3 76.8(9) . 3_475 ?
O14 B8 O15 106.9(14) . 3_575 ?
O14 B8 O13 112.9(15) . . ?
O15 B8 O13 109.2(15) 3_575 . ?
O14 B8 O10 106.7(14) . 4_554 ?
O15 B8 O10 109.3(15) 3_575 4_554 ?
O13 B8 O10 111.5(14) . 4_554 ?
O14 B8 Cs2 55.9(8) . 3_475 ?
O15 B8 Cs2 51.2(8) 3_575 3_475 ?
O13 B8 Cs2 130.1(11) . 3_475 ?
O10 B8 Cs2 118.3(10) 4_554 3_475 ?
O7 N1 O8 120.5(19) . . ?
O7 N1 O9 119.0(17) . . ?
O8 N1 O9 120.3(18) . . ?
O7 N1 Cs3 149.8(14) . 3_575 ?
O8 N1 Cs3 65.8(11) . 3_575 ?
O9 N1 Cs3 60.3(10) . 3_575 ?
O7 N1 Cs2 62.1(10) . . ?
O8 N1 Cs2 143.1(16) . . ?
O9 N1 Cs2 66.6(11) . . ?
Cs3 N1 Cs2 94.9(4) 3_575 . ?
O7 N1 Cs1 57.0(10) . 3_565 ?
O8 N1 Cs1 65.3(12) . 3_565 ?
O9 N1 Cs1 160.2(15) . 3_565 ?
Cs3 N1 Cs1 112.2(5) 3_575 3_565 ?
Cs2 N1 Cs1 97.3(5) . 3_565 ?
B1 O1 B3 122.0(14) . 3_465 ?
B1 O1 Cs1 102.6(10) . 3_465 ?
B3 O1 Cs1 89.5(9) 3_465 3_465 ?
B2 O2 B1 118.3(15) . . ?
B2 O2 Cs1 114.2(11) . 4 ?
B1 O2 Cs1 96.8(10) . 4 ?
B2 O2 Cs2 93.9(10) . 2_665 ?
B1 O2 Cs2 126.9(10) . 2_665 ?
Cs1 O2 Cs2 107.4(3) 4 2_665 ?
B2 O3 B1 116.6(15) . 3_565 ?
B2 O3 Cs1 138.6(12) . 2_665 ?
B1 O3 Cs1 95.0(10) 3_565 2_665 ?
B2 O3 Cs2 93.2(10) . 2_665 ?
B1 O3 Cs2 120.7(10) 3_565 2_665 ?
Cs1 O3 Cs2 92.6(3) 2_665 2_665 ?
B2 O4 B3 122.5(14) . . ?
B2 O4 Cs1 129.3(11) . 3_465 ?
B3 O4 Cs1 99.0(9) . 3_465 ?
B4 O5 B3 124.6(14) . . ?
B4 O5 Cs2 93.7(10) . 4 ?
B3 O5 Cs2 117.5(10) . 4 ?
B5 O6 B3 122.6(14) . . ?
B5 O6 Cs1 126.5(11) . . ?
B3 O6 Cs1 103.8(9) . . ?
B5 O6 Cs1 99.1(11) . 3_465 ?
B3 O6 Cs1 105.2(9) . 3_465 ?
Cs1 O6 Cs1 92.1(3) . 3_465 ?
N1 O7 Cs1 143.8(14) . . ?
N1 O7 Cs1 104.1(12) . 3_565 ?
Cs1 O7 Cs1 90.5(4) . 3_565 ?
N1 O7 Cs2 98.3(11) . . ?
Cs1 O7 Cs2 104.0(4) . . ?
Cs1 O7 Cs2 117.4(5) 3_565 . ?
N1 O8 Cs2 133.2(16) . 4_655 ?
N1 O8 Cs3 94.0(12) . 3_575 ?
Cs2 O8 Cs3 97.0(4) 4_655 3_575 ?
N1 O8 Cs1 95.0(13) . 3_565 ?
Cs2 O8 Cs1 110.9(4) 4_655 3_565 ?
Cs3 O8 Cs1 130.7(7) 3_575 3_565 ?
N1 O9 Cs3 160.7(15) . . ?
N1 O9 Cs3 99.4(11) . 3_575 ?
Cs3 O9 Cs3 88.4(4) . 3_575 ?
N1 O9 Cs2 92.9(12) . . ?
Cs3 O9 Cs2 101.1(5) . . ?
Cs3 O9 Cs2 109.8(5) 3_575 . ?
B4 O10 B8 123.8(13) . 4 ?
B4 O10 Cs3 96.0(9) . 3_475 ?
B8 O10 Cs3 137.7(10) 4 3_475 ?
B4 O10 Cs3 86.4(9) . . ?
B8 O10 Cs3 107.7(10) 4 . ?
Cs3 O10 Cs3 86.7(3) 3_475 . ?
B4 O10 Cs2 77.3(9) . 4 ?
B8 O10 Cs2 87.2(9) 4 4 ?
Cs3 O10 Cs2 88.2(3) 3_475 4 ?
Cs3 O10 Cs2 162.4(4) . 4 ?
B5 O11 B4 120.4(15) . . ?
B5 O11 Cs3 121.3(11) . . ?
B4 O11 Cs3 93.1(9) . . ?
B5 O11 Cs3 131.9(12) . 3_475 ?
B4 O11 Cs3 91.2(9) . 3_475 ?
Cs3 O11 Cs3 88.7(3) . 3_475 ?
B6 O12 B5 118.9(13) . . ?
B6 O12 Cs2 82.9(9) . . ?
B5 O12 Cs2 114.5(11) . . ?
B6 O12 Cs1 129.2(10) . 3_465 ?
B5 O12 Cs1 73.5(10) . 3_465 ?
Cs2 O12 Cs1 140.4(3) . 3_465 ?
B6 O13 B8 119.2(14) . . ?
B6 O13 Cs2 107.1(9) . . ?
B8 O13 Cs2 111.7(10) . . ?
B6 O13 Cs3 110.9(9) . . ?
B8 O13 Cs3 107.7(9) . . ?
Cs2 O13 Cs3 98.3(3) . . ?
B7 O14 B8 122.4(13) . . ?
B7 O14 Cs2 124.4(10) . 3_475 ?
B8 O14 Cs2 102.1(10) . 3_475 ?
B7 O14 Cs3 108.6(10) . 4_554 ?
B8 O14 Cs3 100.7(10) . 4_554 ?
Cs2 O14 Cs3 92.1(3) 3_475 4_554 ?
B7 O15 B8 127.8(14) . 3_475 ?
B7 O15 Cs2 124.3(9) . 1_455 ?
B8 O15 Cs2 107.4(10) 3_475 1_455 ?
B7 O15 Cs3 76.1(10) . 3_475 ?
B8 O15 Cs3 99.4(10) 3_475 3_475 ?
Cs2 O15 Cs3 104.0(3) 1_455 3_475 ?
B6 O16 B7 121.0(13) . . ?
B6 O16 Cs3 102.6(9) . 3_475 ?
B7 O16 Cs3 79.9(9) . 3_475 ?
loop_
_geom_bond_atom_site_label_1
_geom_bond_atom_site_label_2
_geom_bond_distance
_geom_bond_site_symmetry_2
_geom_bond_publ_flag
Cs1 O6 3.029(10) . ?
Cs1 O7 3.066(14) . ?
Cs1 O6 3.127(11) 3_565 ?
Cs1 O7 3.177(14) 3_465 ?
Cs1 O2 3.249(14) 4_554 ?
Cs1 O4 3.270(12) 3_565 ?
Cs1 O3 3.299(13) 2_664 ?
Cs1 O8 3.350(17) 3_465 ?
Cs1 O1 3.350(12) 3_565 ?
Cs1 B5 3.60(2) 3_565 ?
Cs1 B3 3.66(2) . ?
Cs1 N1 3.673(19) 3_465 ?
Cs2 O15 3.108(11) 1_655 ?
Cs2 O8 3.150(19) 4_654 ?
Cs2 O13 3.194(11) . ?
Cs2 O7 3.211(16) . ?
Cs2 O14 3.223(11) 3_575 ?
Cs2 O9 3.306(19) . ?
Cs2 O5 3.376(12) 4_554 ?
Cs2 O2 3.522(11) 2_664 ?
Cs2 O3 3.541(10) 2_664 ?
Cs2 N1 3.597(18) . ?
Cs2 B4 3.709(19) 4_554 ?
Cs2 O12 3.734(12) . ?
Cs3 O11 3.104(11) . ?
Cs3 O10 3.129(10) 3_575 ?
Cs3 O9 3.163(14) . ?
Cs3 O9 3.165(15) 3_475 ?
Cs3 O11 3.204(10) 3_575 ?
Cs3 O8 3.286(16) 3_475 ?
Cs3 O10 3.296(11) . ?
Cs3 O13 3.409(11) . ?
Cs3 O14 3.469(13) 4 ?
Cs3 B4 3.479(19) . ?
Cs3 O16 3.485(11) 3_575 ?
Cs3 B7 3.52(2) 3_575 ?
B1 O1 1.32(2) . ?
B1 O3 1.39(2) 3_465 ?
B1 O2 1.40(2) . ?
B1 Cs1 3.688(19) 4 ?
B1 Cs1 3.862(19) 3_465 ?
B2 O4 1.34(2) . ?
B2 O3 1.38(2) . ?
B2 O2 1.38(2) . ?
B2 Cs2 3.87(2) 2_665 ?
B3 O4 1.45(2) . ?
B3 O6 1.45(2) . ?
B3 O5 1.48(2) . ?
B3 O1 1.49(2) 3_565 ?
B3 Cs1 3.78(2) 3_465 ?
B4 O5 1.33(2) . ?
B4 O10 1.34(2) . ?
B4 O11 1.41(2) . ?
B4 Cs3 3.528(19) 3_475 ?
B4 Cs2 3.709(19) 4 ?
B5 O6 1.36(2) . ?
B5 O11 1.37(2) . ?
B5 O12 1.38(3) . ?
B5 Cs1 3.60(2) 3_465 ?
B6 O13 1.35(2) . ?
B6 O12 1.37(2) . ?
B6 O16 1.39(2) . ?
B7 O15 1.31(2) . ?
B7 O14 1.38(2) . ?
B7 O16 1.41(2) . ?
B7 Cs3 3.52(2) 3_475 ?
B8 O14 1.46(2) . ?
B8 O15 1.46(2) 3_575 ?
B8 O13 1.47(2) . ?
B8 O10 1.48(2) 4_554 ?
B8 Cs2 3.807(19) 3_475 ?
N1 O7 1.223(19) . ?
N1 O8 1.24(2) . ?
N1 O9 1.26(2) . ?
N1 Cs3 3.594(17) 3_575 ?
N1 Cs1 3.673(19) 3_565 ?
O1 B3 1.49(2) 3_465 ?
O1 Cs1 3.350(12) 3_465 ?
O2 Cs1 3.249(14) 4 ?
O2 Cs2 3.522(11) 2_665 ?
O3 B1 1.39(2) 3_565 ?
O3 Cs1 3.299(13) 2_665 ?
O3 Cs2 3.541(10) 2_665 ?
O4 Cs1 3.270(11) 3_465 ?
O5 Cs2 3.376(12) 4 ?
O6 Cs1 3.127(11) 3_465 ?
O7 Cs1 3.177(14) 3_565 ?
O8 Cs2 3.150(19) 4_655 ?
O8 Cs3 3.286(16) 3_575 ?
O8 Cs1 3.350(17) 3_565 ?
O9 Cs3 3.165(15) 3_575 ?
O10 B8 1.48(2) 4 ?
O10 Cs3 3.129(10) 3_475 ?
O10 Cs2 3.765(11) 4 ?
O11 Cs3 3.204(10) 3_475 ?
O12 Cs1 3.740(12) 3_465 ?
O14 Cs2 3.223(11) 3_475 ?
O14 Cs3 3.469(13) 4_554 ?
O15 B8 1.46(2) 3_475 ?
O15 Cs2 3.108(11) 1_455 ?
O15 Cs3 3.601(15) 3_475 ?
O16 Cs3 3.484(11) 3_475 ?
