#------------------------------------------------------------------------------
#$Date: 2022-02-11 01:47:28 +0200 (Fri, 11 Feb 2022) $
#$Revision: 272904 $
#$URL: file:///home/coder/svn-repositories/cod/cif/7/70/94/7709454.cif $
#------------------------------------------------------------------------------
#
# This file is available in the Crystallography Open Database (COD),
# http://www.crystallography.net/
#
# All data on this site have been placed in the public domain by the
# contributors.
#
data_7709454
loop_
_publ_author_name
'Bai, Shuo'
'Yang, Daqing'
'Zhang, Bingbing'
'Li, Ling'
'Wang, Ying'
_publ_section_title
;
 Two Lead Borate-nitrates with Anion-Centered [OPb4] Tetrahedra and Two
 Types of \p-Conjugated Planar Units Showing Large Birefringence
;
_journal_name_full               'Dalton Transactions'
_journal_paper_doi               10.1039/D2DT00183G
_journal_year                    2022
_chemical_formula_moiety         '0.5(B2 O14 Pb12), 2(N0.5 O1.5)'
_chemical_formula_sum            'B N O10 Pb6'
_chemical_formula_weight         1427.96
_space_group_crystal_system      orthorhombic
_space_group_IT_number           59
_space_group_name_Hall           '-P 2ab 2a'
_space_group_name_H-M_alt        'P m m n :2'
_atom_sites_solution_primary     dual
_audit_creation_date             2021-05-09
_audit_creation_method
;
Olex2 1.2
(compiled 2018.05.29 svn.r3508 for OlexSys, GUI svn.r5506)
;
_audit_update_record
;
2021-10-11 deposited with the CCDC.	2022-02-10 downloaded from the CCDC.
;
_cell_angle_alpha                90
_cell_angle_beta                 90
_cell_angle_gamma                90
_cell_formula_units_Z            2
_cell_length_a                   5.7481(5)
_cell_length_b                   9.4582(9)
_cell_length_c                   11.2770(12)
_cell_measurement_reflns_used    2775
_cell_measurement_temperature    273(2)
_cell_measurement_theta_max      27.37
_cell_measurement_theta_min      2.81
_cell_volume                     613.09(10)
_computing_cell_refinement       'SAINT V8.38A (?, 2016)'
_computing_data_reduction        'SAINT V8.38A (?, 2016)'
_computing_molecular_graphics    'Olex2 (Dolomanov et al., 2009)'
_computing_publication_material  'Olex2 (Dolomanov et al., 2009)'
_computing_structure_refinement  'ShelXL (Sheldrick, 2015)'
_computing_structure_solution    'ShelXT (Sheldrick, 2015)'
_diffrn_ambient_temperature      273.15
_diffrn_measured_fraction_theta_full 0.989
_diffrn_measured_fraction_theta_max 0.992
_diffrn_measurement_device_type  'CCD area detector'
_diffrn_measurement_method       'phi and omega scans'
_diffrn_radiation_monochromator  graphite
_diffrn_radiation_type           MoK\a
_diffrn_radiation_wavelength     0.71073
_diffrn_reflns_av_R_equivalents  0.0664
_diffrn_reflns_av_unetI/netI     0.0379
_diffrn_reflns_Laue_measured_fraction_full 0.989
_diffrn_reflns_Laue_measured_fraction_max 0.992
_diffrn_reflns_limit_h_max       7
_diffrn_reflns_limit_h_min       -7
_diffrn_reflns_limit_k_max       12
_diffrn_reflns_limit_k_min       -12
_diffrn_reflns_limit_l_max       14
_diffrn_reflns_limit_l_min       -14
_diffrn_reflns_number            6656
_diffrn_reflns_point_group_measured_fraction_full 0.989
_diffrn_reflns_point_group_measured_fraction_max 0.992
_diffrn_reflns_theta_full        25.242
_diffrn_reflns_theta_max         27.530
_diffrn_reflns_theta_min         2.811
_exptl_absorpt_coefficient_mu    82.125
_exptl_absorpt_correction_T_max  0.0206
_exptl_absorpt_correction_T_min  0.0040
_exptl_absorpt_correction_type   multi-scan
_exptl_absorpt_process_details
'SADABS-2016/2 (Bruker,2016/2) was used for absorption correction. wR2(int) was 0.1705 before and 0.0827 after correction. The Ratio of minimum to maximum transmission is 0.1942. The \l/2 correction factor is Not present.'
_exptl_crystal_colour            colourless
_exptl_crystal_colour_primary    colourless
_exptl_crystal_density_diffrn    7.735
_exptl_crystal_description       block
_exptl_crystal_F_000             1168
_exptl_crystal_size_max          0.183
_exptl_crystal_size_mid          0.134
_exptl_crystal_size_min          0.077
_refine_diff_density_max         1.926
_refine_diff_density_min         -1.843
_refine_diff_density_rms         0.440
_refine_ls_extinction_method     none
_refine_ls_goodness_of_fit_ref   1.048
_refine_ls_hydrogen_treatment    undef
_refine_ls_matrix_type           full
_refine_ls_number_parameters     58
_refine_ls_number_reflns         823
_refine_ls_number_restraints     0
_refine_ls_restrained_S_all      1.048
_refine_ls_R_factor_all          0.0412
_refine_ls_R_factor_gt           0.0327
_refine_ls_shift/su_max          0.001
_refine_ls_shift/su_mean         0.000
_refine_ls_structure_factor_coef Fsqd
_refine_ls_weighting_details
'w=1/[\s^2^(Fo^2^)+(0.0561P)^2^] where P=(Fo^2^+2Fc^2^)/3'
_refine_ls_weighting_scheme      calc
_refine_ls_wR_factor_gt          0.0869
_refine_ls_wR_factor_ref         0.0918
_reflns_Friedel_coverage         0.000
_reflns_number_gt                696
_reflns_number_total             823
_reflns_threshold_expression     'I > 2\s(I)'
_cod_data_source_file            d2dt00183g2.cif
_cod_data_source_block           1
_cod_original_sg_symbol_H-M      'P m m n'
_cod_database_code               7709454
_shelx_shelxl_version_number     2018/3
_shelx_space_group_comment
;
The symmetry employed for this shelxl refinement is uniquely defined
by the following loop, which should always be used as a source of
symmetry information in preference to the above space-group names.
They are only intended as comments.
;
_shelx_estimated_absorpt_t_max   0.061
_shelx_estimated_absorpt_t_min   0.023
_olex2_refinement_description
;
;
_shelx_res_file
;
TITL 1_a.res in Pmmn
    1.res
    created by SHELXL-2018/3 at 19:59:46 on 09-May-2021
REM Old TITL 1 in Pmmn
REM SHELXT solution in Pmmn: R1 0.099, Rweak 0.004, Alpha 0.005
REM <I/s> 0.361 for 39 systematic absences, Orientation as input
REM Formula found by SHELXT: Pb
CELL 0.71073 5.7481 9.4582 11.277 90 90 90
ZERR 2 0.0005 0.0009 0.0012 0 0 0
LATT 1
SYMM 0.5-X,0.5-Y,+Z
SYMM -X,0.5+Y,-Z
SYMM 0.5+X,-Y,-Z
SFAC B N O Pb
UNIT 2 2 20 12

L.S. 4
PLAN  20
SIZE 0.077 0.134 0.183
TEMP 0
FREE Pb1 Pb3
list 4
fmap 2
ACTA
OMIT 2 0 9
OMIT 0 1 5
OMIT 1 0 7
OMIT 1 3 11
OMIT 1 4 11
OMIT 2 0 8
REM <olex2.extras>
REM <HklSrc "%.\\1.hkl">
REM </olex2.extras>

WGHT    0.056100
FVAR       0.12308
PB1   4    0.750000    0.556075    0.820331    10.50000    0.03551    0.03169 =
         0.03991   -0.00330    0.00000    0.00000
PB2   4    0.250000    0.250000    0.865762    10.25000    0.03529    0.03741 =
         0.03632    0.00000    0.00000    0.00000
PB3   4    0.750000    0.250000    0.643570    10.25000    0.03336    0.03345 =
         0.03734    0.00000    0.00000    0.00000
PB4   4    0.250000    0.012693    0.619237    10.50000    0.03473    0.03346 =
         0.03955   -0.00269    0.00000    0.00000
N1    2    0.250000    0.750000    0.913567    10.25000    0.04713    0.05865 =
         0.05708    0.00000    0.00000    0.00000
B1    1    0.750000    0.750000    0.568661    10.25000    0.03704    0.04974 =
         0.02874    0.00000    0.00000    0.00000
O1    3    0.250000    0.638970    0.963196    10.50000    0.13080    0.07559 =
         0.09303    0.00672    0.00000    0.00000
O2    3    0.250000    0.750000    0.800237    10.25000    0.15063    0.06705 =
         0.02231    0.00000    0.00000    0.00000
O3    3    1.001498    0.397154    0.754150    11.00000    0.03782    0.03173 =
         0.02782   -0.00023   -0.00148   -0.00238
O4    3    0.750000    0.619946    0.629392    10.50000    0.07790    0.03067 =
         0.04976    0.01866    0.00000    0.00000
O5    3    0.250000    0.250000    0.551155    10.25000    0.04158    0.02869 =
         0.03929    0.00000    0.00000    0.00000
HKLF 4




REM  1_a.res in Pmmn
REM wR2 = 0.0918, GooF = S = 1.048, Restrained GooF = 1.048 for all data
REM R1 = 0.0327 for 696 Fo > 4sig(Fo) and 0.0412 for all 823 data
REM 58 parameters refined using 0 restraints

END

WGHT      0.0561      0.0000

REM Highest difference peak  1.926,  deepest hole -1.843,  1-sigma level  0.440
Q1    1   0.2500  0.1088  0.6266  10.50000  0.05    1.93
Q2    1   0.2500  0.2500  0.9714  10.25000  0.05    1.77
Q3    1   0.2500 -0.0535  0.6826  10.50000  0.05    1.77
Q4    1   0.7500  0.2500  0.5562  10.25000  0.05    1.65
Q5    1   0.7500  0.5501  0.8972  10.50000  0.05    1.64
Q6    1   0.7500  0.4835  0.8760  10.50000  0.05    1.57
Q7    1   0.2500  0.0531  0.5593  10.50000  0.05    1.54
Q8    1   0.7500  0.3214  0.6965  10.50000  0.05    1.45
Q9    1   0.7500  0.3501  0.6248  10.50000  0.05    1.45
Q10   1   0.2500 -0.1028  0.6200  10.50000  0.05    1.43
Q11   1   0.7500  0.6383  0.8017  10.50000  0.05    1.38
Q12   1   0.7500  0.6678  0.8958  10.50000  0.05    1.38
Q13   1   0.7500  0.5473  0.6887  10.50000  0.05    1.35
Q14   1   0.3500 -0.0366  0.5971  11.00000  0.05    1.33
Q15   1   0.7500  0.7500  0.9265  10.25000  0.05    1.33
Q16   1   0.8491  0.2500  0.6377  10.50000  0.05    1.31
Q17   1   0.2500  0.3449  0.9325  10.50000  0.05    1.25
Q18   1   0.7500  0.7500  0.8324  10.25000  0.05    1.20
Q19   1   0.1319  0.2500  0.5759  10.50000  0.05    1.19
Q20   1   0.7500  0.2500  0.7250  10.25000  0.05    1.18
;
_shelx_res_checksum              19382
_shelx_hkl_file
;
   1   0   0    0.70    0.70
  -1   0   0   -0.40    0.50
   2   0   0 9999.00  534.45
  -2   0   0 9811.92  533.65
  -3   0   0   -1.30    1.30
   3   0   0    1.90    3.30
   3   0   0   -1.50    1.10
   4   0   0 4020.80  215.88
  -4   0   0 3926.21  215.68
   4   0   0 3891.41  220.78
  -5   0   0    2.50    2.40
   5   0   0   -4.00    1.80
   5   0   0   -9.50    3.70
  -6   0   0 1009.60   58.99
  -7   0   0    1.40    3.20
   0  -1   0   -0.30    1.30
   0  -1   0   -0.30    0.50
   0   1   0    0.50    1.20
   0   1   0    0.30    0.60
   1   1   0  251.47   16.50
  -1  -1   0  260.37   16.70
   2   1   0    1.80    1.50
  -2  -1   0    0.50    1.30
   2   1   0    0.50    3.10
   3   1   0  101.49   14.40
   3   1   0  112.49   10.10
  -3   1   0  115.89    7.90
  -3  -1   0  115.79   10.10
   4   1   0   -0.30    2.10
   4   1   0   -2.40    3.90
  -4   1   0    2.10    1.70
  -4  -1   0    2.10    2.10
   5   1   0   37.30    9.60
  -5  -1   0   36.30    6.50
   5   1   0   43.80    5.90
  -5   1   0   35.40    5.30
  -6  -1   0    3.10    2.80
   6   1   0   -3.70    5.60
   6   1   0   -0.90    2.60
  -7   1   0    9.90    3.60
  -7  -1   0    9.60    4.40
   7   1   0   13.70    6.60
   7   1   0   11.40    4.50
   0  -2   0  541.55   37.20
   0   2   0  487.35   32.20
   0   2   0  522.25   41.20
   0  -2   0  524.75   31.10
  -1   2   0   -0.30    0.90
  -1   2   0   -0.60    2.00
  -1  -2   0    0.60    1.40
   1  -2   0    0.70    2.20
   1   2   0    1.70    1.60
   1   2   0    0.00    3.00
   2   2   0  313.37   20.50
  -2  -2   0  287.97   20.60
   2   2   0  257.17   26.60
   3   2   0    1.30    2.30
   3   2   0   -4.20    4.40
  -3  -2   0    1.50    1.90
  -4   2   0  173.98   11.10
  -4  -2   0  170.38   14.40
   4   2   0  146.89   19.40
   4   2   0  174.18   14.60
  -5  -2   0    4.50    2.80
   5   2   0    7.10    6.10
   5   2   0   -0.70    2.40
  -6  -2   0   45.50    7.70
   6   2   0   47.80    6.60
  -6   2   0   37.20    5.40
   6   2   0   54.39   12.40
  -7  -2   0    6.50    4.00
   7   2   0   -5.00    3.00
   7   2   0    0.50    7.70
  -7   2   0   -1.20    2.60
   0  -3   0    0.80    1.70
   0   3   0    0.70    1.60
   0   3   0    5.80    4.60
  -1   3   0 1259.87   74.19
   1  -3   0 1278.27   80.39
   1  -3   0 1308.77   73.19
  -1   3   0 1374.36   80.29
  -1  -3   0 1354.86   76.89
   1   3   0 1343.27   76.69
  -2   3   0    1.30    1.80
  -2   3   0    1.00    1.10
   2   3   0    3.40    4.40
  -2   3   0   -1.60    1.30
  -2  -3   0    3.40    2.30
   3   3   0  671.23   42.90
  -3  -3   0  682.03   42.60
  -3   3   0  706.53   37.40
   3   3   0  648.54   51.49
  -3   3   0  620.94   37.00
   4   3   0    0.50    2.20
  -4  -3   0   -1.90    2.40
  -4   3   0   -0.60    1.10
   4   3   0   -5.40    5.50
  -5   3   0  206.28   13.20
  -5  -3   0  225.58   17.70
   5   3   0  200.78   16.90
   6   3   0   -1.50    2.60
  -6   3   0   -0.70    2.00
  -6  -3   0    3.40    3.20
   6   3   0   -0.30    7.10
  -7   3   0   65.19    6.70
   7   3   0   60.69    8.40
   7   3   0   61.99   14.70
  -7  -3   0   48.60    8.80
   0   4   0 3204.18  177.98
   0  -4   0 3160.58  177.58
   0   4   0 3248.58  188.88
   1   4   0   -0.20    2.00
  -1   4   0    1.50    3.70
  -1   4   0   -0.40    1.60
  -1  -4   0   -0.40    1.80
   1  -4   0    0.10    1.30
   1   4   0    0.20    3.90
  -2  -4   0 3099.29  169.78
  -2   4   0 2916.21  165.38
   2   4   0 3148.78  183.18
   2   4   0 3079.39  169.28
  -2   4   0 2877.81  168.78
   3   4   0    0.40    2.40
  -3   4   0   -1.70    1.30
  -3  -4   0   -0.30    2.40
   3   4   0    4.20    6.40
  -4  -4   0 1009.20   62.59
   4   4   0 1093.79   63.49
   4   4   0  944.91   79.09
   5   4   0   -7.50    6.80
  -5  -4   0   -5.40    2.80
   5   4   0   -3.80    2.60
  -5   4   0   -4.10    2.70
  -6   4   0  359.46   24.40
  -6  -4   0  409.56   28.30
   6   4   0  376.66   35.30
   6   4   0  418.76   27.80
  -7  -4   0   -1.40    4.30
  -7   4   0   -0.90    4.60
   7   4   0   -1.30    3.60
   0   5   0   -0.80    2.00
   0  -5   0   -0.60    1.80
   0   5   0    1.70    4.00
   1  -5   0 1120.89   63.89
   1   5   0 1093.49   66.89
  -1   5   0 1080.59   65.09
  -1   5   0 1165.38   74.09
  -1  -5   0 1087.39   66.79
   2   5   0    4.00    2.90
  -2   5   0   -2.80    1.90
  -2  -5   0   -0.20    2.30
   2   5   0   -7.40    4.70
  -2   5   0    1.00    3.20
   3   5   0  593.74   51.79
  -3   5   0  601.34   37.30
  -3   5   0  688.03   39.40
  -3  -5   0  629.34   41.80
  -4  -5   0    0.40    2.80
   4   5   0   -3.50    2.70
   4   5   0    3.50    7.60
   5   5   0  225.88   27.00
  -5  -5   0  241.38   20.00
   5   5   0  243.08   20.20
  -6  -5   0   -6.70    3.50
   6   5   0    0.30    3.10
   0   6   0  299.97   23.20
   0  -6   0  299.07   22.70
   0   6   0  352.16   33.40
   1   6   0    2.00    6.30
  -1  -6   0    1.00    2.40
  -1   6   0    3.70    4.90
   1   6   0    0.60    3.00
  -1   6   0   -2.60    2.10
  -2  -6   0  150.48   14.30
  -2   6   0  141.09   15.90
   2   6   0  147.49   14.00
  -2   6   0  117.69   11.50
   2   6   0  102.09   21.30
   2  -6   0  130.39    8.40
   3   6   0    2.50    2.70
  -3   6   0    0.50    2.20
   3   6   0   -1.20    7.50
  -3   6   0    1.60    3.00
  -3  -6   0   -1.80    2.60
   4   6   0   95.39   21.20
  -4  -6   0   93.99   19.80
   4   6   0  113.99   12.90
   5   6   0   -0.20    3.00
  -5  -6   0    4.90    3.70
  -6  -6   0   28.40    7.00
   6   6   0    7.30   11.50
   6   6   0   12.50    5.30
   0   7   0   -1.30    3.10
   0   7   0   -0.70    5.90
   0  -7   0    1.00    2.60
   1  -7   0  397.96   26.90
  -1  -7   0  423.76   29.70
  -1   7   0  418.66   28.80
  -1   7   0  422.66   36.70
   1   7   0  359.26   29.00
   1   7   0  459.55   41.40
   2   7   0   -1.10    2.90
  -2   7   0   -5.70    2.50
   2   7   0   -9.50    6.10
   2  -7   0    1.00    2.50
  -2   7   0   -5.90    4.50
   2  -7   0    0.60    1.40
  -2  -7   0    1.10    2.80
   3   7   0  244.88   21.30
  -3   7   0  239.58   19.90
  -3   7   0  253.77   18.00
   3   7   0  217.38   29.30
   4   7   0    1.80    3.20
  -4  -7   0   -2.70    3.30
   5   7   0  119.19   13.30
   5   7   0  122.39   23.00
  -5  -7   0   93.09   12.50
   6   7   0   -5.10    3.60
   0   8   0  214.68   19.30
   0   8   0  248.88   28.40
   0  -8   0  237.28   18.90
   1   8   0    2.90    3.40
  -1   8   0   -7.50    5.70
  -1   8   0    5.30    3.60
   1  -8   0    4.60    2.80
   1   8   0   -5.20    6.50
  -1  -8   0    3.60    3.10
  -2   8   0  173.58   19.00
  -2  -8   0  156.98   18.60
  -2   8   0  142.29   13.10
   2  -8   0  138.39    9.80
   2  -8   0  100.39   10.60
  -3   8   0    1.80    2.40
  -3  -8   0   -5.90    2.80
   3   8   0    1.20    3.10
  -3   8   0    0.20    4.70
  -4  -8   0  108.69   12.80
   4   8   0  101.29   12.80
   4   8   0   93.69   22.60
   5   8   0    2.10    4.10
  -5  -8   0   -1.30    4.00
   0   9   0    1.50    4.20
   0   9   0    5.10    7.50
   0  -9   0   -0.80    2.90
  -1   9   0   59.29   10.10
   1   9   0   85.09   22.10
   1   9   0   60.39   11.10
   1  -9   0   54.19    7.50
  -1   9   0   54.89   14.70
  -1  -9   0   59.69   10.80
   2  -9   0   -0.70    3.10
  -2   9   0   -0.50    3.40
  -2  -9   0    2.80    3.50
  -2   9   0    1.30    5.60
   2  -9   0    3.20    2.10
   2   9   0    1.70    3.10
  -3   9   0   38.10   10.00
   3   9   0   41.50    9.00
  -3  -9   0   36.50    7.80
  -3   9   0   44.40    6.90
   3   9   0   50.89   17.60
  -4  -9   0    2.30    4.10
  -4   9   0    4.60    2.60
  -4   9   0   -8.90    4.50
   4   9   0    1.30    3.70
   5   9   0   19.90    7.00
  -5  -9   0   15.60    6.80
   0  10   0  157.08   23.40
   0 -10   0  158.28   14.60
   1  10   0    1.60    4.70
  -1  10   0   -4.00    4.20
   1  10   0    9.80    9.10
   1 -10   0    1.00    2.80
  -1 -10   0   -6.00    3.30
  -1  10   0    1.90    7.70
  -2  10   0  174.28   22.10
   2  10   0  189.88   18.40
  -2 -10   0  181.18   17.30
  -2  10   0  203.58   16.50
   2  10   0  122.29   23.50
  -3 -10   0    0.20    4.30
  -3  10   0   10.80    6.70
   3  10   0   -0.80    3.70
  -3  10   0    0.70    2.90
  -4  10   0   72.59    7.90
  -4  10   0   80.59   11.90
  -4 -10   0   82.69   12.10
   4  10   0   81.19   11.90
   0  11   0   -9.70    9.10
   0 -11   0    1.90    3.80
   0  11   0   -2.10    3.70
   1 -11   0    3.40    3.10
   1  11   0    1.30    4.00
  -1  11   0   -0.50    8.80
  -1  11   0    1.80    3.40
  -1 -11   0    0.60    3.90
  -2 -11   0    0.10    4.10
   2 -11   0    5.50    4.00
  -2  11   0    4.00    3.80
   2  11   0    0.70    4.00
  -2  11   0    2.70    8.50
   3  11   0   -0.70    3.90
  -3  11   0    7.50    7.70
  -3  11   0    0.90    3.50
  -3 -11   0    1.00    4.50
   0 -12   0   50.89    8.60
   0  12   0   50.99   10.10
   1 -12   0    3.60    4.60
  -1 -12   0   -3.50    4.10
  -1  12   0   -6.70    3.70
   1  12   0   -1.90    4.60
   1 -12   0   -5.50    3.40
  -1   0   1   70.89    6.10
  -1   0  -1   61.59    6.90
   1   0  -1   80.49    6.70
   1   0  -1   73.19    5.90
   1   0   1   73.69    6.80
  -1   0   1   78.39    6.50
   2   0  -1  100.39    8.60
   2   0  -1   92.89    7.10
   2   0   1   94.39    9.80
  -2   0   1   91.29    8.00
  -2   0   1  101.79    8.50
   3   0   1   34.30    7.30
   3   0   1   40.70    4.60
  -3   0   1   44.10    5.40
   3   0  -1   33.30    5.10
   4   0   1   33.90    4.50
  -4   0  -1   39.30    5.20
  -4   0   1   40.70    5.70
   4   0  -1   32.00    5.90
   4   0   1   42.30    8.40
  -5   0   1   13.40    4.20
   5   0   1   13.60    3.10
  -5   0  -1   20.50    4.10
   5   0   1   13.60    4.60
   5   0  -1   10.00    6.30
  -6   0   1   12.80    3.90
  -6   0  -1   21.40    4.50
   6   0  -1    4.60    6.00
   6   0  -1   16.90    5.00
  -7   0   1    1.80    3.30
  -7   0  -1    0.50    3.30
   0  -1  -1  372.46   25.20
   0  -1   1  387.46   22.80
   0   1  -1  389.06   22.80
   0   1  -1  353.46   22.40
   0  -1   1  387.46   22.50
  -1  -1  -1  355.96   27.90
   1   1  -1  370.06   23.80
  -1   1   1  405.56   22.60
   1   1  -1  334.87   24.30
   1  -1  -1  406.36   24.90
  -1  -1   1  359.16   23.70
  -1  -1   1  380.66   23.60
   1  -1  -1  360.86   21.60
   2   1  -1   89.29    8.00
  -2   1   1  100.49    7.70
  -2   1   1   82.69    7.00
   2   1  -1   90.09    8.80
  -2  -1   1   92.99    8.60
   2   1   1   90.69   11.70
  -3   1   1  220.98   14.70
  -3  -1  -1  206.68   15.70
   3   1  -1  214.48   16.40
  -3   1   1  230.48   14.80
  -3  -1   1  222.98   16.40
   3  -1  -1  215.68   17.50
   3   1   1  207.78   20.30
   4   1  -1   98.99    9.90
  -4  -1  -1  105.29    9.80
  -4   1   1  107.39    9.00
   4  -1  -1   97.49   11.30
   4   1   1   91.09   13.10
  -4   1  -1  114.39    8.00
  -4  -1   1  103.29   10.10
   4   1   1  101.89    9.70
  -5  -1  -1   92.39    9.40
   5   1  -1   92.59   16.10
  -5   1   1   93.19    8.40
   5   1  -1   90.39    9.40
  -5   1  -1   87.59    7.60
   5   1   1   92.79    8.60
  -5  -1   1   84.99    9.50
   5   1   1   98.89   13.00
  -6  -1  -1   18.80    4.80
  -6   1   1   24.00    4.90
   6   1  -1   14.50    8.50
   6   1  -1   20.00    5.30
   6   1   1   22.10    4.50
   6   1   1   30.00    7.50
  -6  -1   1   28.50    5.90
  -6   1  -1   20.40    4.10
  -7  -1  -1   18.10    5.30
   7   1  -1   26.30    6.40
   7   1  -1   28.10    9.40
  -7   1   1   24.90    5.20
  -7   1  -1   21.70    4.70
  -7  -1   1   33.40    7.40
   0  -2  -1  210.48   15.50
   0  -2  -1  236.38   20.60
   0  -2   1  206.88   15.10
   0   2  -1  241.68   15.70
   0   2  -1  226.88   15.70
   0   2   1  227.28   19.70
   1   2  -1    8.20    2.90
  -1  -2  -1    3.70    3.70
  -1   2   1    6.10    3.20
   1   2  -1    4.00    2.30
  -1   2   1    7.00    2.80
  -1  -2  -1    4.60    2.30
  -1   2  -1    6.00    1.50
   1   2   1   11.40    5.40
   1  -2  -1    3.90    2.80
  -1   2  -1    5.00    1.70
   1  -2  -1    3.10    2.30
  -1  -2   1    5.90    2.80
   1  -2  -1    5.20    1.80
  -2  -2  -1  171.48   13.50
  -2   2   1  171.08   11.20
   2   2  -1  150.28   12.80
   2   2  -1  156.48   13.60
   2  -2  -1  143.29   12.40
  -2  -2   1  143.59   12.90
   2   2   1  154.08   17.80
  -3  -2  -1   -0.80    2.00
  -3   2   1   -0.40    1.20
   3   2  -1    2.10    2.20
  -3   2   1    1.80    1.30
   3   2  -1   -0.70    1.80
  -3  -2   1   -0.20    2.00
   3   2   1    2.00    3.90
  -4  -2  -1   61.39    7.70
  -4   2   1   51.59    5.50
   4   2  -1   58.39    7.50
   4   2  -1   49.40   13.40
  -4  -2   1   63.09    8.00
   4   2   1   53.69   12.60
   4   2   1   48.20    7.20
   5   2  -1    2.50    2.60
  -5   2   1   -3.50    1.70
  -5  -2  -1    2.60    2.80
   5   2  -1   -8.90    5.30
  -5   2  -1    3.20    1.70
   5   2   1   -3.70    5.00
  -5  -2   1    0.70    2.80
   5   2   1    1.70    2.30
  -6  -2  -1   17.50    4.90
  -6   2   1   15.90    3.60
   6   2  -1    8.10    4.00
   6   2   1   11.80    7.50
  -6   2  -1   16.90    3.10
   6   2   1   25.00    4.90
  -6  -2   1   12.80    4.70
  -7   2   1   -0.70    3.00
   7   2  -1   -2.60    8.30
  -7  -2  -1   -0.60    3.70
   7   2  -1    2.00    3.80
  -7  -2   1   -1.60    3.70
  -7   2  -1    8.60    2.70
   7   2   1   -1.80    3.10
   0  -3  -1 1682.93   93.69
   0   3  -1 1703.03   93.69
   0   3   1 1620.34   93.49
   0   3   1 1633.34  100.99
   0  -3   1 1615.14   92.99
   0  -3  -1 1617.14  102.29
   1  -3   1  167.58   11.40
  -1   3   1  178.18   13.20
  -1  -3  -1  180.08   14.90
   1   3  -1  169.28   14.60
  -1   3   1  182.38   16.70
   1   3  -1  163.68   14.60
  -1  -3  -1  199.78   22.50
  -1   3  -1  171.48   17.40
   1   3   1  184.78   20.80
  -1   3  -1  173.58   12.90
   1  -3  -1  200.38   14.20
   1  -3  -1  174.48   17.90
   1  -3  -1  163.88   12.40
  -1   3  -1  182.28   12.80
  -1  -3   1  196.88   15.10
   2   3  -1 1858.81  104.19
  -2   3   1 1741.03  101.29
   2   3  -1 1787.92  102.99
  -2   3   1 1977.10  103.19
  -2  -3  -1 1922.11  103.79
  -2  -3   1 1820.72  103.39
   2   3   1 1791.12  112.79
   2  -3  -1 1625.64  103.49
  -2   3  -1 1689.13   97.99
   3   3  -1   85.29   18.80
   3   3  -1   94.79    9.90
  -3  -3  -1  104.59   10.80
  -3   3   1  106.69    9.10
   3   3  -1   81.59   10.10
  -3  -3   1   96.89   10.60
   3   3   1   88.29   17.40
  -4   3   1  505.85   29.80
  -4  -3  -1  510.25   33.60
   4   3  -1  483.15   33.60
   4   3  -1  470.45   41.90
   4   3   1  511.95   33.80
   4   3   1  507.15   40.70
  -4  -3   1  500.45   33.60
   5   3  -1   26.70    6.10
  -5   3   1   36.30    4.70
   5   3  -1   28.10   11.10
  -5  -3  -1   26.20    6.20
  -5  -3   1   44.70    8.00
   5   3   1   48.20    8.30
   5   3   1   35.60   10.60
   6   3  -1  192.78   23.80
   6   3  -1  215.48   16.90
  -6  -3  -1  211.28   17.20
  -6   3   1  205.28   14.20
   6   3   1  193.88   16.10
  -6   3  -1  191.58   12.60
   6   3   1  203.68   22.30
   7   3  -1   14.90    5.00
  -7   3   1    9.80    3.50
   7   3  -1    6.60   10.90
  -7  -3  -1    5.30    4.30
   7   3   1    2.10    3.70
  -7  -3   1    4.60    4.70
   7   3   1   11.70    8.80
   0  -4  -1  364.86   36.90
   0  -4  -1  346.47   23.90
   0   4  -1  337.97   23.90
   0   4   1  312.27   23.40
   0   4   1  348.47   31.00
   0  -4   1  347.07   23.40
   0   4  -1  319.77   31.40
   1  -4   1  212.68   15.80
  -1   4   1  227.98   17.50
   1   4  -1  258.57   19.60
  -1   4   1  251.47   22.60
  -1  -4  -1  244.08   19.30
   1   4  -1  228.18   27.10
  -1  -4  -1  220.28   26.70
   1  -4  -1  261.77   17.30
  -1  -4   1  237.78   18.90
   1  -4  -1  278.67   17.70
   1   4   1  288.07   28.00
  -1   4  -1  230.28   17.40
   1  -4  -1  254.37   24.60
  -1   4  -1  237.58   23.40
  -2  -4  -1  250.97   19.70
   2   4  -1  268.77   20.30
   2   4  -1  225.18   27.50
   2   4  -1  278.07   19.80
  -2   4   1  238.08   19.00
   2  -4  -1  210.98   20.90
   2   4   1  247.58   26.80
  -2   4  -1  222.48   15.70
  -2  -4   1  219.28   18.80
  -2   4  -1  230.18   15.80
  -2   4  -1  230.98   19.20
   3   4  -1  115.19   12.50
  -3   4   1  143.79   11.20
   3   4  -1   83.99   19.00
  -3  -4  -1  112.79   12.40
   3   4  -1  129.99   12.50
   3  -4  -1  121.79   12.80
  -3  -4   1  109.59   12.20
  -3   4  -1  127.59    8.50
   3   4   1   97.39   20.50
  -4  -4  -1   83.89   10.30
   4   4  -1  115.39   11.60
   4   4  -1  137.09   23.80
  -4   4   1   61.89    8.90
  -4  -4   1   88.29   10.70
  -5   4   1   24.70    5.80
   5   4  -1   39.80    7.80
  -5  -4  -1   48.70    8.30
   5   4  -1   12.10   10.40
   5   4   1   38.50    7.60
   5   4   1   22.10    9.10
  -5  -4   1   36.60    7.40
   6   4  -1   36.80    7.60
  -6  -4  -1   32.40    7.20
   6   4  -1   28.10   11.80
  -6   4   1   27.20    6.40
   6   4   1   40.00    7.20
  -6   4  -1   28.30    4.10
   6   4   1   25.10   10.20
  -6  -4   1   38.40    7.70
   7   4  -1   11.80    5.50
   7   4  -1   -2.10   14.00
  -7   4   1    7.70    5.20
  -7  -4  -1    9.60    5.10
  -7  -4   1    8.20    5.40
   7   4   1    4.90    4.30
   0   5  -1    3.60    5.70
   0  -5  -1   15.40    9.40
   0  -5   1   10.00    3.80
   0   5   1    9.60    3.80
   0   5   1    2.60    4.70
   0  -5  -1    6.40    3.50
   0   5  -1   13.50    4.50
   1   5  -1  406.46   37.30
   1   5  -1  359.66   25.80
  -1   5   1  326.97   23.80
   1  -5   1  350.36   22.50
  -1   5   1  371.26   30.50
  -1  -5  -1  313.47   34.40
  -1  -5  -1  336.87   25.40
  -1   5  -1  370.76   32.20
  -1   5  -1  342.37   24.00
   1   5   1  339.97   25.30
   1  -5  -1  348.97   23.30
  -1  -5   1  329.37   25.00
   1  -5  -1  350.46   32.30
   1   5   1  315.37   32.80
  -2  -5  -1   14.90    5.10
  -2   5   1    9.20    4.80
   2   5  -1   15.40    5.10
   2   5  -1    5.40    3.00
   2   5  -1   -4.70    5.40
   2  -5  -1    8.80    5.30
  -2  -5   1    6.90    3.40
   2  -5  -1   12.40    2.80
  -2   5  -1    9.90    5.60
  -2   5  -1   15.90    3.90
  -2   5  -1    8.20    3.10
   2  -5  -1    9.60    2.10
   2   5   1    7.60    6.50
  -3  -5  -1  216.78   17.90
  -3   5   1  189.28   16.40
   3   5  -1  207.18   27.10
   3   5  -1  212.28   18.20
   3   5  -1  232.58   20.00
   3  -5  -1  189.88   18.10
   3   5   1  195.38   24.70
  -3   5  -1  172.28   13.20
  -3  -5   1  174.28   16.70
  -4  -5  -1    1.50    3.00
   4   5  -1   -5.30    7.10
   4   5  -1    7.80    4.10
   4   5   1    2.30    6.90
  -4   5  -1    6.00    1.90
  -4  -5   1    5.00    3.30
  -5  -5  -1   67.59    9.50
   5   5  -1   73.79    9.90
   5   5  -1   46.40   14.20
   5   5   1   60.09    9.10
   5   5   1   69.29   16.50
  -5  -5   1   77.19   10.00
   6   5  -1   -0.20    3.30
  -6   5   1    6.60    3.70
   6   5  -1   -5.00   11.00
  -6  -5  -1    4.60    4.30
  -6  -5   1    4.70    3.90
   6   5   1    2.20    3.50
   0  -6  -1  324.27   33.40
   0  -6   1  304.07   22.60
   0   6  -1  337.27   33.70
   0  -6  -1  296.37   22.90
   0   6   1  302.27   31.20
   0   6  -1  313.47   23.70
   0   6   1  313.57   23.50
  -1   6   1  524.55   40.20
   1  -6   1  507.95   31.10
  -1  -6  -1  480.85   33.70
  -1   6   1  506.95   32.60
   1   6  -1  453.15   43.80
   1   6  -1  479.55   33.80
   1  -6  -1  468.35   31.20
  -1   6  -1  441.06   39.90
  -1   6  -1  479.95   32.40
   1   6   1  483.75   33.50
   1  -6  -1  529.35   42.90
  -1  -6   1  474.75   33.20
   2   6  -1  251.37   30.40
  -2   6   1  269.27   22.80
  -2  -6  -1  225.48   20.00
   2   6  -1  233.78   20.50
   2   6  -1  234.08   20.10
  -2  -6   1  251.47   20.30
   2  -6  -1  233.38   15.40
  -2   6  -1  240.78   17.70
   2  -6  -1  250.77   25.30
   2   6   1  265.67   29.40
  -2   6  -1  254.07   18.20
  -2   6  -1  225.98   22.40
   3   6  -1  295.97   24.30
  -3   6   1  315.07   23.00
   3   6  -1  318.17   23.90
  -3  -6  -1  291.37   23.80
   3   6  -1  306.47   34.50
  -3  -6   1  285.57   23.50
  -3   6  -1  302.87   19.50
   3   6   1  289.37   32.10
  -3   6  -1  323.37   22.40
  -3   6  -1  303.17   20.30
   4   6  -1  117.69   23.00
   4   6  -1  121.19   13.50
  -4  -6  -1  143.59   24.30
  -4   6  -1  122.89    9.70
  -4  -6   1  128.39   13.70
   4   6   1  127.79   24.00
   5   6  -1  119.29   13.50
  -5  -6  -1  118.79   13.30
  -5  -6   1  121.09   13.40
   5   6   1  138.99   14.20
  -6  -6  -1   47.70    9.00
   6   6  -1   39.80    7.80
   6   6  -1   40.90   15.40
   6   6   1   43.10   14.30
   6   6   1   44.10    8.30
  -6  -6   1   32.20    7.80
   0  -7  -1  373.56   25.60
   0   7   1  331.17   25.40
   0   7  -1  334.07   25.80
   0  -7   1  350.76   24.70
   0   7   1  299.37   40.00
   0   7  -1  308.17   36.90
  -1  -7  -1  133.39   13.70
   1   7  -1  137.89   14.10
  -1   7   1  116.69   17.50
   1   7  -1  128.39   13.70
   1  -7   1  135.59   11.50
  -1   7   1  142.39   13.20
   1   7  -1  147.59   22.30
   1   7   1  106.89   21.90
   1  -7  -1  132.09   12.00
  -1   7  -1  134.99   20.10
   1   7   1  120.79   13.30
  -1  -7   1  122.69   13.10
  -1   7  -1  127.69   12.90
   2   7  -1  175.58   16.70
  -2  -7  -1  177.88   16.40
   2   7  -1  164.58   16.20
   2   7  -1  181.78   26.20
  -2   7   1  182.48   19.00
  -2   7  -1  143.19   13.80
  -2  -7   1  160.78   15.70
   2  -7  -1  155.08   11.70
  -2   7  -1  174.98   14.20
  -2   7  -1  188.68   19.80
   2   7   1  188.38   24.70
   3   7  -1   57.59   11.40
   3   7  -1   71.59   17.60
  -3   7   1   76.49   11.20
   3   7  -1   82.19   10.90
  -3   7  -1   88.29    8.60
  -3   7  -1   93.39   10.80
   3   7   1   57.09   17.50
  -3   7  -1   81.99    8.70
  -4  -7  -1  133.69   14.50
   4   7  -1  130.79   14.70
  -4   7  -1  127.39   11.00
  -4  -7   1  152.48   14.90
   4   7   1  166.38   15.90
  -5  -7  -1   36.30    7.90
   5   7  -1   30.60   14.60
   5   7  -1   24.50    6.70
   5   7   1   27.60    7.00
   5   7   1   32.60   13.40
  -5  -7   1   38.50    8.30
   6   7  -1   41.20    8.50
   6   7   1   34.80    8.00
  -6  -7   1   45.90   14.20
   0   8  -1  202.78   27.20
   0  -8  -1  231.68   19.20
   0  -8   1  247.98   19.10
   0   8  -1  250.37   20.40
   0   8   1  234.58   27.40
   0   8  -1  235.48   20.20
   0   8   1  248.08   20.30
   1   8  -1  438.96   42.40
  -1  -8  -1  444.36   30.90
   1  -8   1  407.36   27.50
   1   8  -1  407.76   30.50
  -1   8   1  408.76   36.40
   1   8  -1  446.36   31.60
  -1   8  -1  444.16   38.90
   1   8   1  400.66   39.40
   1  -8  -1  422.66   28.20
  -1   8  -1  422.16   29.80
  -1   8  -1  429.06   29.80
  -1  -8   1  390.16   29.60
   2  -8   1  192.78   12.20
   2   8  -1  187.88   21.00
  -2   8   1  181.68   20.00
  -2   8  -1  189.68   16.20
  -2   8  -1  213.48   21.80
   2  -8  -1  182.88   13.20
  -2   8  -1  180.38   15.40
   3   8  -1  290.77   23.20
   3   8  -1  267.77   38.50
  -3  -8  -1  272.37   22.40
  -3   8   1  258.17   22.30
  -3   8  -1  277.27   18.90
  -3  -8   1  257.47   22.00
  -3   8  -1  235.98   22.10
  -3   8  -1  278.97   20.00
  -4  -8  -1  103.79   12.60
   4   8  -1  102.69   12.90
  -4   8   1  119.39   12.90
   4   8  -1   85.29   20.50
  -4   8  -1   98.09   10.00
   4   8   1  111.29   13.20
   4   8   1  111.39   23.30
  -4  -8   1   98.39   12.80
  -5  -8  -1  127.39   14.20
   5   8  -1  120.99   14.10
  -5  -8   1   97.19   12.90
   5   8   1  119.29   14.30
   0  -9  -1  225.88   18.30
   0   9  -1  211.08   27.80
   0   9   1  223.88   26.60
   0  -9   1  201.48   17.50
   0   9  -1  225.98   19.30
   0   9  -1  206.78   19.10
  -1   9   1    3.60    6.50
   1   9  -1   -0.60    4.40
   1   9  -1    0.10    3.00
   1   9  -1    2.10    9.20
   1  -9   1   -3.70    2.40
  -1  -9   1    0.50    3.00
  -1   9  -1   -2.90    7.20
  -1   9  -1    6.50    4.10
   1  -9  -1    0.50    2.70
  -1   9  -1    1.20    2.60
   1   9   1   -6.80    7.60
   2   9  -1  183.78   42.40
   2  -9   1  194.28   12.70
   2   9  -1  196.68   18.60
  -2   9   1  158.38   20.60
  -2  -9  -1  193.68   18.00
  -2   9  -1  206.58   22.90
  -2   9  -1  197.28   16.40
  -2   9  -1  205.38   17.10
  -2  -9   1  175.38   17.30
   2  -9  -1  201.58   15.70
  -3  -9  -1   -5.30    3.10
   3   9  -1   -0.40    4.80
   3   9  -1    0.20   11.40
  -3   9   1   -4.60    5.10
   3   9  -1    0.50    3.50
  -3   9  -1    2.60    2.50
  -3  -9   1   -1.50    3.40
   3   9   1  -12.80    8.30
  -3   9  -1   -3.40    3.70
  -3   9  -1    2.60    5.60
  -4   9   1   93.79    8.80
   4   9  -1   85.89   12.10
  -4  -9  -1   82.99   12.30
  -4   9   1   82.89   12.20
   4   9   1   86.09   12.30
  -4  -9   1   90.09   11.90
  -5  -9  -1    9.20    4.90
   5   9  -1   -4.80    4.50
   5   9   1   -0.70    4.20
  -5  -9   1   -4.80    4.20
   0 -10   1  102.19   11.00
   0  10  -1   83.49   11.40
   0  10   1   78.09   17.30
   0 -10  -1   95.49   11.60
   0  10  -1   90.49   19.90
   1  10  -1  187.58   18.70
   1  10  -1  209.58   19.60
   1  10  -1  240.88   30.20
   1 -10   1  195.98   15.70
  -1  10   1  211.88   25.10
  -1 -10  -1  215.18   18.50
  -1 -10   1  206.98   18.20
   1 -10  -1  225.88   16.70
   1  10   1  172.08   26.20
  -1  10  -1  197.48   19.40
  -1  10  -1  176.48   24.60
  -1  10  -1  223.78   19.00
   2  10  -1   56.99   16.40
   2 -10   1   88.59    6.80
   2  10  -1   79.69   11.40
  -2 -10  -1   91.29   11.40
  -2  10   1   78.09   15.90
   2  10  -1   56.79   11.80
  -2  10  -1   80.99   11.00
  -2  10  -1   68.99    9.40
  -2  10  -1   68.29   15.40
  -2 -10   1   78.39   11.10
   2  10   1   32.50   14.30
   2 -10  -1   66.69    7.30
   3  10  -1  154.78   15.90
  -3  10   1  128.79   16.70
  -3 -10  -1  141.49   15.30
   3  10   1  132.19   15.50
  -3  10  -1  130.59   12.20
  -3  10  -1  141.99   14.10
  -3 -10   1  139.69   15.10
  -3  10  -1  137.59   17.10
  -4  10   1   36.00    6.00
  -4 -10  -1   43.80    9.00
   4  10  -1   31.10    9.30
  -4  10  -1   49.90    9.10
   4  10   1   34.70    8.40
  -4  10  -1   40.70    5.80
  -4 -10   1   33.20    7.50
   0  11  -1    7.00   12.20
   0 -11  -1   20.20    5.60
   0 -11   1   15.90    5.40
   0  11  -1   17.00    6.10
   0  11   1   24.90   11.30
  -1  11   1  151.98   24.10
   1 -11   1  155.78   13.50
  -1 -11  -1  152.48   15.50
   1  11  -1  171.78   17.30
   1 -11  -1  170.08   14.60
  -1  11  -1  161.78   15.60
  -1  11  -1  157.28   16.50
  -1  11  -1  163.38   28.90
  -1 -11   1  160.58   15.50
   1 -11  -1  162.98   14.00
   2 -11   1    8.10    2.70
  -2 -11  -1    5.60    5.10
  -2  11   1   12.00    9.20
   2  11  -1   15.60    6.80
   2 -11   1    7.40    3.70
  -2  11  -1    7.30    6.00
  -2  11  -1   10.60    4.80
  -2 -11   1    5.90    4.90
   2 -11  -1   -2.30    4.50
   2 -11  -1    9.70    3.40
  -2  11  -1    1.20    8.70
  -3  11   1   99.59   16.70
  -3  11   1  114.99   12.00
   3  11  -1  116.99   14.10
  -3 -11  -1  106.49   13.80
  -3  11  -1   98.69   10.70
   3  11   1  115.79   14.40
  -3 -11   1  105.79   13.30
  -3  11  -1   96.39   16.00
   0 -12  -1   13.10    5.40
   0 -12   1   19.00    5.70
   0  12  -1   23.50    6.90
   1 -12   1   37.20    6.50
   1  12  -1   45.70   10.50
  -1  12   1   22.70    7.00
  -1 -12  -1   24.30    6.60
   1 -12  -1   24.80    6.50
  -1 -12   1   29.60    6.90
  -1  12  -1   22.00    6.60
   1  12   1   31.70    8.30
   0   0   2  723.73   42.60
   0   0  -2  636.04   44.20
  -1   0   2  494.55   30.50
  -1   0   2  504.55   32.20
   1   0  -2  469.85   30.20
   1   0   2  517.05   31.90
  -1   0  -2  504.65   32.30
   1   0  -2  507.85   32.70
   2   0  -2  207.18   14.90
   2   0  -2  224.38   17.00
  -2   0   2  229.98   16.30
  -2   0  -2  223.68   18.60
  -2   0   2  206.08   15.60
   3   0  -2  307.17   20.70
   3   0   2  263.67   19.90
  -3   0   2  272.37   19.20
  -3   0   2  254.17   19.10
   3   0  -2  271.17   17.60
   4   0   2  229.78   17.50
  -4   0   2  232.18   17.20
   4   0   2  228.48   15.50
  -5   0  -2   91.39    8.80
  -5   0   2  102.79   10.00
   5   0  -2  106.09   11.00
   6   0  -2   50.09   11.00
  -6   0  -2   35.70    6.10
   6   0  -2   48.50    9.10
  -6   0   2   42.50    7.00
   7   0  -2   14.40    6.40
  -7   0   2   24.90    5.40
  -7   0  -2   33.40    5.80
   0   1  -2  190.58   14.10
   0  -1   2  178.38   15.20
   0  -1  -2  203.58   16.80
   0  -1   2  190.98   13.60
   0   1   2  196.18   15.80
  -1  -1  -2   25.40    6.70
   1   1  -2   15.60    3.70
  -1   1   2   25.00    5.30
   1  -1   2   28.80    4.30
  -1   1   2   12.20    5.20
   1   1  -2   29.00    4.90
   1   1   2   18.00    5.40
   1  -1  -2   25.20    5.30
  -1   1  -2   14.20    4.60
  -1  -1   2   23.00    4.50
  -1   1  -2   29.20    3.60
   1  -1  -2   27.20    7.50
  -1  -1   2   22.90    4.50
  -2   1   2  140.99   11.70
  -2  -1  -2  139.49   16.00
  -2   1   2  133.49   10.20
   2   1  -2  120.99   11.30
   2   1  -2  124.19   10.80
  -2  -1   2  129.99   11.30
  -2  -1   2  115.89   11.10
   2   1   2  132.89   13.90
   2  -1  -2  108.69    8.90
  -3   1   2   10.80    3.20
  -3   1   2   13.80    3.60
   3   1  -2   15.20    3.60
  -3  -1   2   13.30    3.90
   3  -1  -2    7.10    4.90
  -3  -1   2   16.60    4.40
   3   1   2    5.70    4.30
  -4  -1  -2   47.40    6.20
  -4   1   2   49.30    5.70
   4   1  -2   35.20    6.90
   4  -1  -2   24.50    7.60
  -4  -1   2   47.10    7.70
   4   1   2   53.69   10.50
   5   1  -2    2.40    2.80
  -5   1   2    8.20    3.20
  -5  -1  -2    3.30    2.60
   5   1   2    3.50    2.50
  -5  -1   2    4.40    2.90
   5  -1  -2    1.40    4.30
   5   1   2   -0.30    4.00
  -5   1  -2    1.90    2.20
   6   1  -2   16.00    4.30
  -6  -1  -2   20.90    4.90
   6   1  -2   10.70    8.20
  -6   1   2   17.70    4.40
   6  -1  -2    7.90    5.10
  -6   1  -2   15.40    3.60
   6   1   2   19.10    5.80
  -6  -1   2   14.30    4.50
   6   1   2   14.80    3.60
  -7   1   2    1.60    3.20
   7   1  -2   -4.50    4.40
  -7  -1  -2    7.40    3.80
  -7  -1   2    1.20    3.60
  -7   1  -2   -4.50    2.90
   0   2   2  143.99   14.30
   0  -2   2  138.09   11.30
   0  -2  -2  120.39   14.10
   0  -2   2  133.09   10.70
   0   2  -2  138.59   11.30
   0   2  -2  127.59   10.80
   1   2  -2 7185.38  394.66
   1   2  -2 7340.27  394.16
  -1  -2  -2 7420.36  402.56
   1  -2   2 6432.16  390.26
  -1   2   2 7201.48  396.16
   1  -2   2 7110.59  391.96
   1   2   2 7806.62  401.46
  -1   2  -2 7157.98  391.86
   1  -2  -2 7251.17  397.26
  -1  -2   2 7662.23  394.36
  -1   2  -2 7162.28  392.06
  -2   2   2   48.60    6.50
   2   2  -2   51.09    7.10
   2   2  -2   43.90    7.40
  -2  -2  -2   45.30   12.50
   2   2   2   39.70   10.10
   2  -2  -2   40.00    4.10
  -2  -2   2   49.70    7.00
   2  -2  -2   52.69    9.30
   2  -2  -2   40.60    4.10
   3   2  -2 3450.25  200.28
  -3  -2  -2 3681.83  201.08
  -3   2   2 3548.15  198.88
   3   2  -2 3683.73  202.28
  -3   2   2 3847.42  200.08
  -3  -2   2 3628.94  201.68
   3  -2  -2 3952.00  203.58
   3   2   2 3280.67  207.08
  -4   2   2   30.00    4.90
  -4   2   2   27.40    4.50
   4   2  -2   32.40    6.70
  -4  -2  -2   34.90    6.50
   4   2  -2   39.80    6.30
   4  -2  -2   37.50    7.30
   4   2   2   27.00    8.60
  -4  -2   2   33.80    6.70
  -5  -2  -2 1179.78   69.09
  -5   2   2 1160.28   66.89
   5   2  -2 1156.08   78.49
   5   2  -2 1153.48   69.59
  -5   2  -2 1187.48   64.89
   5   2   2 1182.18   73.79
   5   2   2 1229.08   69.09
  -5  -2   2 1139.49   69.39
   6   2  -2    5.20    3.30
   6   2  -2    1.70    7.80
  -6  -2  -2    9.40    3.70
  -6   2   2    4.60    2.90
  -6   2  -2    7.00    2.30
   6   2   2    4.40    3.20
  -6  -2   2   -0.10    3.50
   6   2   2   11.20    6.40
   7   2  -2  292.87   30.70
   7   2  -2  338.17   24.70
  -7   2   2  340.27   22.60
  -7  -2  -2  324.97   24.00
   7   2   2  365.66   26.40
  -7  -2   2  351.96   24.90
  -7   2  -2  356.96   21.30
   7   2   2  344.27   22.80
   0   3  -2  665.33   41.00
   0   3   2  691.13   47.00
   0  -3   2  643.14   40.00
   0  -3  -2  684.13   41.10
   0   3  -2  665.03   40.60
   0  -3  -2  593.54   47.00
  -1   3   2  429.36   31.30
   1   3  -2  477.45   29.90
   1  -3   2  453.25   26.40
  -1  -3  -2  438.66   29.60
   1   3  -2  432.16   29.90
  -1  -3  -2  396.76   37.20
  -1   3  -2  411.96   27.10
   1  -3  -2  460.55   30.20
   1  -3  -2  424.76   27.50
  -1  -3   2  463.85   30.40
  -1   3  -2  402.16   26.70
   1  -3  -2  405.86   32.40
   1   3   2  435.26   35.60
   2   3  -2  480.55   33.50
  -2   3   2  573.94   35.70
  -2  -3  -2  496.65   33.10
  -2  -3  -2  496.05   42.60
   2   3  -2  538.05   33.50
  -2   3  -2  498.45   29.30
   2  -3  -2  451.55   34.00
   2   3   2  489.45   39.80
  -2   3  -2  515.35   29.10
   2  -3  -2  485.85   28.80
   2  -3  -2  463.95   28.70
  -2  -3   2  476.95   32.90
  -3   3   2  192.38   16.10
   3   3  -2  175.18   16.10
  -3  -3  -2  196.18   16.10
  -3   3   2  189.48   15.60
   3   3  -2  184.48   15.60
  -3  -3   2  188.48   16.10
   3  -3  -2  188.38   16.10
   3   3   2  169.28   20.70
   4   3  -2  202.38   17.10
  -4   3   2  199.98   13.60
  -4   3   2  204.38   15.10
   4   3  -2  199.48   15.90
  -4  -3  -2  218.08   17.20
   4   3   2  200.88   22.10
   4  -3  -2  182.98   15.50
  -4  -3   2  207.58   17.10
   5   3  -2   79.19   17.90
  -5  -3  -2   62.79    8.50
   5   3  -2   55.29    8.30
  -5   3   2   70.39    7.30
  -5  -3   2   63.69    8.70
   5   3   2   53.09    8.80
   5   3   2   60.09   12.80
  -6   3   2   69.29    7.90
   6   3  -2   61.29    8.80
  -6  -3  -2   56.39    9.30
   6   3  -2   46.80   14.20
   6   3   2   63.59    8.50
  -6   3  -2   68.49    5.20
   6   3   2   75.69   13.20
  -6  -3   2   74.79    9.30
   7   3  -2    7.50   11.60
  -7  -3  -2   21.30    6.10
   7   3  -2   13.70    5.10
  -7   3   2   10.10    4.40
   7   3   2   24.10    5.50
  -7   3  -2   11.20    2.70
   7   3   2   16.30    8.50
  -7  -3   2   18.70    6.10
   0   4   2    4.90    4.10
   0   4  -2    3.80    2.80
   0  -4   2    3.60    2.30
   0  -4  -2    3.80    2.80
   0  -4  -2    0.20    5.20
   1   4  -2   26.10    6.80
  -1  -4  -2   18.20    8.70
  -1   4   2   34.70    9.20
   1  -4   2   23.00    3.90
  -1  -4  -2   13.10    4.80
   1   4  -2   13.30    4.70
  -1   4  -2   21.90    4.50
  -1   4  -2   19.20    4.40
   1  -4  -2   19.80    4.90
   1   4   2   19.90    8.90
   1  -4  -2   18.50    4.40
   1  -4  -2   30.40    9.50
  -1  -4   2   18.70    5.10
  -2  -4  -2   82.29   20.60
  -2   4   2   63.19    8.90
   2   4  -2   48.40    8.60
  -2  -4  -2   61.69    8.70
   2   4  -2   62.59    8.70
   2  -4  -2   69.39   12.70
   2  -4  -2   70.19    5.90
  -2   4  -2   63.09    6.20
   2  -4  -2   59.19    6.60
  -2   4  -2   80.29   10.50
  -2  -4   2   71.49    8.90
   2   4   2   38.10   11.00
  -2   4  -2   54.59    5.90
   3   4  -2    4.20    2.90
  -3   4   2   -0.70    4.10
  -3  -4  -2   11.30    4.60
   3   4  -2   11.20    4.40
  -3   4   2    9.40    4.00
   3  -4  -2    7.20    4.40
  -3  -4   2    7.00    3.80
  -3   4  -2    7.40    2.00
   3   4   2    6.80    7.00
   4   4  -2    1.60    3.10
   4   4  -2   13.40    8.00
  -4  -4  -2    1.60    3.20
   4   4  -2   -2.30    2.30
  -4  -4   2    0.80    2.90
   4   4   2   -3.40    6.40
  -5  -4  -2    5.90    3.40
   5   4  -2    0.90    7.70
   5   4  -2    1.80    3.10
  -5   4   2   -0.90    3.80
  -5  -4   2    0.10    3.20
   5   4   2   -2.20    6.40
   5   4   2    3.30    3.20
  -6   4   2    2.20    4.80
  -6  -4  -2    4.60    4.10
   6   4  -2   13.80    5.40
   6   4  -2    5.80   10.10
   6   4   2    5.90    3.90
  -6  -4   2    2.60    3.80
   6   4   2   12.90    9.20
   0   5  -2  881.01   54.59
   0  -5   2  864.41   53.49
   0   5   2  897.81   62.79
   0  -5  -2  905.91   54.69
   0   5  -2  894.91   54.69
   0  -5  -2  867.21   65.39
  -1  -5  -2   98.19   11.20
   1   5  -2  102.99   11.40
   1  -5   2   86.29    8.50
   1   5  -2   94.69   11.20
  -1   5   2  112.59   14.70
   1  -5  -2   89.49    9.80
  -1   5  -2  122.89   10.70
  -1  -5   2  101.49   11.00
  -1   5  -2   97.89   10.10
   1  -5  -2  117.09   17.00
  -1   5  -2   75.79   15.90
   1   5   2  119.69   17.70
   2   5  -2  633.64   42.20
   2   5  -2  652.63   41.90
  -2  -5  -2  615.04   53.19
  -2  -5  -2  621.54   41.80
  -2   5   2  715.53   43.60
   2  -5  -2  616.74   37.00
   2   5   2  554.84   48.80
  -2   5  -2  628.44   38.10
  -2   5  -2  618.64   44.50
  -2   5  -2  617.24   38.20
  -2  -5   2  642.54   41.60
   2  -5  -2  652.83   46.90
   3   5  -2   66.79   18.20
  -3  -5  -2   53.79    9.60
  -3   5   2   84.09   11.10
   3   5  -2   70.79    9.70
   3   5  -2   71.79    9.50
  -3  -5   2   66.59    9.10
   3   5   2   79.49   17.50
   3  -5  -2   64.19   12.50
  -3   5  -2   55.49    6.00
  -4  -5  -2  286.37   22.30
   4   5  -2  279.87   32.60
   4   5  -2  260.27   22.00
  -4   5   2  292.57   20.30
   4   5  -2  286.57   21.60
  -4   5   2  288.87   19.50
  -4   5  -2  269.77   16.80
   4  -5  -2  269.67   21.60
  -4  -5   2  268.07   21.90
   4   5   2  251.27   27.90
   5   5  -2   32.10    8.30
   5   5  -2   28.50   13.00
  -5  -5  -2   29.70    6.70
  -5   5   2   10.60    5.10
   5   5   2   24.80   10.40
   5   5   2   28.60    6.80
  -5  -5   2   17.50    5.40
   6   5  -2   99.89   11.60
  -6  -5  -2   95.49   11.60
  -6   5   2   77.89   10.40
  -6  -5   2   87.89   11.40
   6   5   2  103.09   11.60
   0  -6  -2  185.88   24.60
   0   6  -2  173.68   16.20
   0   6  -2  177.98   16.10
   0  -6  -2  193.28   16.30
   0   6   2  200.68   23.10
   0  -6   2  174.88   15.30
   0   6  -2  182.18   24.40
   1   6  -2  856.51   54.69
   1   6  -2  877.71   54.99
  -1   6   2  832.52   59.59
  -1  -6  -2  882.71   54.69
   1   6  -2  794.62   65.89
   1  -6   2  855.91   50.89
  -1  -6  -2  920.11   68.49
   1  -6  -2  870.31   63.69
   1  -6  -2  896.41   52.59
  -1   6  -2  840.02   52.79
  -1  -6   2  831.72   53.59
  -1   6  -2  896.61   53.19
   1   6   2  819.42   64.39
  -1   6  -2  862.21   62.79
   1  -6  -2  920.01   52.49
   2   6  -2   83.09   10.70
   2   6  -2   69.79    9.80
  -2  -6  -2   84.69   10.50
  -2   6   2   78.69   11.30
   2   6  -2   47.00   14.50
   2  -6  -2   82.99   17.10
  -2   6  -2   87.69   13.40
   2  -6  -2   66.79    6.90
  -2   6  -2   65.49    7.60
  -2   6  -2   71.09    8.00
   2   6   2   78.79   18.60
  -2  -6   2   66.49    9.20
   2  -6  -2   51.09    8.80
   3   6  -2  545.95   49.30
   3   6  -2  504.55   36.70
   3   6  -2  614.54   37.30
  -3   6   2  559.54   36.70
  -3  -6  -2  544.15   36.80
  -3   6  -2  514.35   32.40
   3  -6  -2  522.45   39.60
  -3  -6   2  520.25   36.20
  -3   6  -2  500.55   31.40
  -3   6  -2  513.15   34.70
   3   6   2  521.05   45.10
   4   6  -2   67.99   10.00
   4   6  -2   61.39   18.10
  -4  -6  -2   57.89   10.00
  -4  -6   2   63.29   10.50
  -4   6  -2   60.69    6.20
   4   6   2   72.49   18.10
   4  -6  -2   52.49   10.50
   5   6  -2  228.78   31.20
  -5  -6  -2  223.18   19.10
   5   6  -2  204.58   18.80
  -5  -6   2  201.58   18.50
  -5   6  -2  224.58   14.00
   5   6   2  230.78   19.60
  -6  -6  -2   12.70    5.90
   6   6  -2   10.00    4.50
   6   6  -2   17.90   13.70
   6   6   2   13.20    5.30
   6   6   2   15.50   10.80
  -6  -6   2   18.90    6.10
   0   7   2  336.97   32.20
   0   7  -2  331.37   24.70
   0  -7   2  316.47   23.10
   0   7  -2  330.07   24.40
   0  -7  -2  305.17   23.70
   0  -7  -2  261.47   31.90
   1   7  -2   51.39   10.00
   1   7  -2   64.89   18.70
  -1  -7  -2   59.99   10.20
   1  -7   2   60.09    7.10
   1   7  -2   49.70    9.60
  -1   7   2   51.69   13.70
  -1  -7  -2   54.69   17.50
  -1   7  -2   58.19    8.00
   1   7   2   67.89   16.40
   1  -7  -2   55.49   15.10
  -1   7  -2   53.79    9.50
   1  -7  -2   62.19    8.00
  -1  -7   2   66.29    9.00
  -1   7  -2   60.09   16.20
   2   7  -2  284.77   22.10
  -2  -7  -2  252.07   21.20
  -2   7   2  289.37   24.20
   2   7  -2  235.58   21.00
   2   7  -2  263.07   31.60
  -2   7  -2  278.27   25.80
  -2   7  -2  244.58   18.60
   2  -7  -2  258.97   17.40
   2   7   2  240.98   28.70
  -2  -7   2  235.18   20.40
   2  -7  -2  228.38   26.10
  -2   7  -2  235.98   18.90
   3   7  -2   36.80    8.30
   3   7  -2   27.80   13.90
  -3   7   2   28.10    7.50
  -3  -7  -2   34.60    8.10
   3   7   2   18.60    9.10
  -3  -7   2   27.90    6.70
  -3   7  -2   31.40    5.80
  -3   7  -2   30.30    7.50
   3  -7  -2   15.40    7.70
   4   7  -2  147.39   27.20
  -4  -7  -2  126.89   13.70
   4   7  -2  135.59   14.40
  -4   7  -2  113.99   10.20
  -4  -7   2  127.29   13.50
   5   7  -2   -3.60   11.90
   5   7  -2    8.90    5.40
  -5  -7  -2   10.50    5.10
  -5  -7   2   11.30    5.30
  -5   7  -2    6.20    2.90
   5   7   2    7.70   12.30
   5   7   2    8.70    5.30
   6   7  -2   50.69    9.30
  -6  -7   2   34.90    8.20
   6   7   2   41.90    8.50
   0   8  -2   54.29    8.50
   0  -8   2   55.79    8.90
   0   8  -2   59.79   17.60
   0   8  -2   62.59   10.20
   0   8   2   40.10   11.80
   0  -8  -2   59.49    8.50
   1   8  -2  179.68   17.90
   1   8  -2  211.08   28.70
  -1   8   2  216.58   23.70
  -1  -8  -2  208.38   18.00
   1   8  -2  194.58   17.90
   1  -8   2  215.28   15.40
   1   8   2  172.58   23.40
  -1   8  -2  168.78   23.80
   1  -8  -2  168.78   24.20
   1  -8  -2  197.98   16.10
  -1   8  -2  191.98   17.10
  -1   8  -2  190.78   16.70
  -1  -8   2  211.98   17.70
   2   8  -2   43.60    9.10
  -2  -8  -2   73.69    9.80
  -2   8   2   46.90   11.80
  -2   8  -2   53.29    9.00
   2  -8  -2   64.89    6.80
  -2   8  -2   68.39    8.20
  -2   8  -2   74.29   15.50
   2  -8  -2   47.20   14.10
   3   8  -2  126.39   14.00
  -3   8   2  116.99   14.20
  -3  -8  -2  115.19   13.30
   3   8  -2  100.09   14.50
   3   8   2  109.39   22.20
  -3   8  -2  112.89   14.50
  -3   8  -2  117.09   11.30
  -3  -8   2  136.29   13.80
  -3   8  -2  114.19   10.00
  -4  -8  -2   21.00    6.30
   4   8  -2   21.10    6.70
   4   8  -2    7.60    4.70
   4   8  -2   13.60   12.80
  -4   8   2   31.80    8.50
  -4   8  -2   27.10    5.50
  -4  -8   2   20.50    6.60
   4   8   2   -2.10   10.30
  -5  -8  -2   55.39   10.00
   5   8  -2   63.69   11.40
  -5  -8   2   39.10    8.30
   5   8   2   46.40    9.60
   0   9   2   64.89   15.40
   0   9  -2   69.79   17.20
   0  -9  -2   78.99    9.90
   0   9  -2   70.99    9.80
   0  -9   2   55.09    8.50
   0   9  -2   78.49   12.10
  -1   9   2    4.10    7.90
   1   9  -2    3.10    9.90
   1   9  -2    6.90    4.00
   1  -9   2    0.30    2.40
  -1  -9  -2    4.60    3.80
   1   9  -2    4.40    4.40
  -1   9  -2    4.60    3.10
  -1   9  -2    6.40    4.10
  -1   9  -2    0.20    7.60
   1  -9  -2    4.10    3.90
  -1  -9   2    8.00    4.80
   1   9   2   17.10    8.40
   1  -9  -2    5.00    3.20
  -2  -9  -2   54.89    9.90
  -2   9   2   68.99   14.50
   2   9  -2   70.39   10.10
   2  -9   2   52.39    5.10
  -2   9  -2   59.89   14.90
  -2   9  -2   67.39    9.10
  -2   9  -2   47.00    8.40
  -2  -9   2   61.59   10.20
   2  -9  -2   53.79    6.60
  -3  -9  -2    1.40    3.90
   3   9  -2    5.50   10.70
  -3   9   2    0.20    4.80
   3   9  -2    2.10    3.70
   3   9  -2   13.40    6.20
  -3  -9   2    6.40    4.00
  -3   9  -2    6.60    6.20
  -3   9  -2   -2.80    3.50
   3   9   2   -8.70    8.60
  -3   9  -2    3.50    2.60
  -4  -9  -2   29.30    7.30
  -4   9   2   34.70    8.70
   4   9  -2   19.60    6.80
  -4  -9   2   28.80    7.20
  -4   9  -2   28.30    5.90
   0  10  -2   58.19   10.70
   0  10   2   58.79   17.40
   0 -10  -2   41.40    7.90
   0 -10   2   56.29    8.70
   0  10  -2   39.80   15.80
   0  10  -2   46.40   10.50
   1  10  -2   91.99   12.40
  -1 -10  -2   87.09   11.00
  -1  10   2   83.09   17.00
   1 -10   2   69.89    8.70
   1  10  -2   79.59   11.20
   1  10  -2   61.79   19.20
  -1  10  -2   96.49   11.90
  -1  10  -2   77.99   10.30
   1 -10  -2   81.99    9.50
   1  10   2   83.89   17.50
  -1 -10   2   83.69   10.80
  -1  10  -2  107.39   22.00
   1 -10  -2   71.59    9.90
   2  10  -2   69.69   12.20
   2  10  -2   39.30   25.20
  -2 -10  -2   50.09    9.30
  -2  10   2   64.69   13.90
   2 -10  -2   57.19    6.90
  -2  10  -2   57.29    8.10
  -2 -10   2   54.39    9.80
  -2  10  -2   75.39   10.90
  -2  10  -2   33.10   13.10
   3  10  -2   56.49   10.20
  -3  10   2   51.89   11.10
  -3 -10  -2   43.10    8.70
  -3  10  -2   47.50   10.90
  -3  10  -2   47.30    6.90
  -3  10  -2   63.19    9.70
  -3 -10   2   61.19   10.30
  -4 -10  -2   26.20    7.30
   4  10  -2   23.70    6.90
  -4  10   2   19.00    8.20
   4  10   2   27.90    8.60
  -4 -10   2   18.30    6.80
  -4  10  -2   23.40    6.40
   0 -11   2    2.60    3.50
   0 -11  -2   -1.50    3.60
   0  11  -2    0.80    3.60
   0  11   2    5.30   10.40
   0  11  -2   16.80   11.10
   1  11  -2    6.30    4.60
  -1 -11  -2   15.90    5.90
  -1  11   2   -3.40    9.10
   1 -11   2   14.80    4.50
  -1  11  -2   16.30    6.90
   1 -11  -2   17.00    5.50
   1 -11  -2   10.60    4.80
  -1  11  -2   14.70   11.60
  -1 -11   2    9.50    5.00
  -1  11  -2   11.80    4.90
   2  11  -2   -1.80    3.80
  -2 -11  -2    5.10    4.70
  -2  11  -2   11.40    9.90
   2 -11  -2    4.80    3.10
  -2 -11   2   -3.30    4.00
   2 -11  -2   -1.90    5.20
  -2  11  -2   -0.70    3.60
  -2  11  -2   -5.20    5.20
   3  11  -2    6.10    4.50
  -3 -11  -2    2.40    5.20
  -3  11   2   29.50    9.70
  -3  11  -2   -0.20    8.40
  -3 -11   2    5.50    5.50
  -3  11  -2   16.50    6.60
  -3  11  -2   18.70    5.00
   0 -12   2   -4.10    3.80
   0  12  -2   -3.40    4.00
   0 -12  -2    4.40    4.40
  -1 -12  -2   25.50    6.70
   1 -12   2   23.90    5.50
   1  12  -2   26.20    7.70
   1 -12  -2   20.10    5.80
  -1 -12   2   26.10    6.70
  -1  12  -2   23.20    6.70
   0   0   3   75.99   11.20
   0   0  -3   81.59   11.80
   0   0   3   60.89    9.10
   0   0  -3   65.49    9.60
  -1   0   3 1318.97   85.79
   1   0   3 1482.05   86.59
   1   0  -3 1414.86   87.69
  -1   0  -3 1590.24   87.59
  -1   0   3 1446.36   83.39
   1   0  -3 1476.65   83.79
   2   0  -3   50.49    6.40
  -2   0   3   49.20    7.20
  -2   0   3   45.30    6.40
   2   0   3   54.79    7.40
   2   0  -3   60.89   11.00
  -2   0  -3   47.30    9.10
  -3   0   3  672.83   41.00
  -3   0   3  647.44   41.10
  -3   0  -3  632.44   44.60
   3   0  -3  663.63   39.40
   3   0   3  672.83   41.20
   4   0  -3   33.80    8.10
   4   0  -3   23.80    3.70
   4   0   3   24.50    5.30
  -4   0   3   19.90    5.00
  -4   0   3   25.60    5.50
  -5   0  -3  210.28   15.40
  -5   0   3  211.38   16.80
   5   0  -3  227.08   19.40
   5   0   3  226.58   14.70
   6   0  -3   -1.30    4.50
  -6   0  -3    5.00    3.00
  -6   0   3    5.40    3.70
  -7   0  -3   61.09    7.80
   7   0  -3   66.39   13.00
   7   0  -3   41.90    9.20
  -7   0   3   60.89    8.60
   0   1  -3  299.37   21.40
   0  -1   3  273.07   20.00
   0   1  -3  261.97   20.00
   0   1   3  265.47   20.20
   0   1   3  261.67   22.10
   0  -1   3  262.47   20.60
   0  -1  -3  286.77   21.00
   0  -1  -3  271.27   23.50
   1  -1   3 1112.29   77.29
   1   1  -3 1383.86   78.29
   1   1  -3 1403.06   77.09
  -1  -1  -3 1462.95   82.39
  -1   1   3 1222.68   82.39
  -1  -1   3 1360.96   76.79
   1  -1  -3 1294.47   77.69
   1   1   3 1465.45   80.19
  -1  -1   3 1398.46   78.29
  -1   1  -3 1270.77   77.09
  -1   1  -3 1245.98   80.19
  -2   1   3  380.86   25.20
   2   1  -3  363.76   26.50
  -2  -1  -3  344.67   29.80
   2   1  -3  396.76   25.60
  -2   1   3  386.16   27.90
   2  -1   3  341.37   26.50
   2   1   3  392.66   28.40
  -2   1  -3  444.76   26.80
  -2  -1   3  377.16   26.20
   2  -1  -3  295.07   29.30
   2  -1  -3  374.96   24.20
  -2  -1   3  381.36   32.00
   3   1  -3  684.13   42.20
  -3  -1  -3  728.23   50.49
   3   1  -3  705.43   44.40
  -3   1   3  721.73   43.30
  -3  -1   3  725.23   43.80
  -3  -1   3  679.23   43.70
   3   1   3  691.53   45.90
  -3   1  -3  662.23   43.50
   3  -1  -3  671.83   40.10
  -4   1   3   94.49    9.10
   4   1  -3   88.59    8.40
   4   1  -3  104.09   10.80
  -4   1   3  100.69    9.40
   4  -1  -3   56.19   12.50
   4   1   3   96.79   11.80
  -4  -1   3   82.99    9.80
  -4  -1   3   96.69   10.30
  -5  -1  -3  244.48   17.50
  -5   1   3  232.38   17.40
   5   1  -3  234.88   19.00
   5  -1  -3  194.38   20.60
  -5  -1   3  256.27   18.80
   5   1   3  242.98   17.00
   5   1   3  238.98   19.40
  -6   1   3   56.59    7.10
   6   1  -3   42.40    8.30
  -6  -1  -3   42.20    6.90
   6   1   3   45.90    7.70
   6  -1  -3   25.40    7.70
  -6   1  -3   42.60    5.70
   6   1   3   50.89    6.00
  -6  -1   3   44.50    7.80
  -7  -1  -3   82.49    9.00
   7   1  -3   58.29   10.40
   7   1  -3   92.99   16.40
  -7   1   3   69.19    8.70
  -7   1  -3   63.59    7.60
  -7  -1   3   65.69    9.40
   0  -2  -3   12.30    5.70
   0  -2   3   15.10    4.10
   0  -2   3   12.20    3.70
   0  -2  -3   12.90    3.80
   0   2   3   14.70    5.50
   0   2  -3   12.10    3.80
   0   2  -3   17.40    4.70
  -1  -2  -3  617.84   47.40
   1  -2   3  683.83   40.80
  -1   2   3  749.42   46.50
   1   2  -3  705.73   43.10
   1   2  -3  689.23   42.20
  -1  -2   3  671.43   42.00
  -1   2  -3  599.34   41.00
  -1  -2   3  670.73   42.70
   1  -2  -3  709.73   47.10
  -1   2  -3  717.83   42.00
   1  -2  -3  570.34   43.50
   1   2   3  718.13   47.00
   2   2  -3    8.30    3.60
  -2  -2  -3   10.60    7.70
   2   2  -3    6.00    3.30
  -2   2   3   21.40    6.20
  -2   2   3    8.20    5.20
   2  -2  -3    9.30    3.10
   2  -2  -3   16.90    6.50
  -2   2  -3    6.80    3.30
  -2  -2   3    7.30    3.40
  -2  -2   3   14.10    4.80
  -2   2  -3    7.20    2.80
   2   2   3   13.00    5.50
  -3   2   3  364.06   24.70
   3   2  -3  339.77   25.30
   3   2  -3  338.57   24.10
  -3  -2  -3  365.76   32.90
  -3   2   3  374.26   25.40
   3  -2  -3  335.57   27.80
  -3  -2   3  302.67   24.70
   3  -2  -3  353.86   20.30
   3   2   3  334.37   28.70
  -3  -2   3  361.06   25.40
   4   2  -3    6.00    3.60
  -4  -2  -3    7.80    3.10
  -4   2   3    8.40    3.30
   4   2  -3    5.20    2.90
  -4   2   3    8.40    3.10
  -4  -2   3    3.70    3.20
   4   2   3    6.80    5.10
   4  -2  -3    4.90    5.00
  -5   2   3  123.39   10.20
   5   2  -3  133.79   12.70
  -5  -2  -3  121.89   11.70
  -5   2   3  113.19   10.60
  -5  -2   3  140.59   12.90
   5   2   3  118.49   14.80
  -6  -2  -3    6.80    3.40
  -6   2   3    0.10    2.90
   6   2  -3    5.10    3.70
   6   2  -3   -8.50    8.00
  -6   2  -3   -2.90    2.00
   6   2   3    6.10    2.90
   6   2   3    0.40    5.30
  -7  -2  -3   43.10    7.50
   7   2  -3   38.30   13.60
   7   2  -3   37.30    7.90
  -7   2   3   21.50    5.80
  -7   2  -3   40.70    5.40
  -7  -2   3   38.30    7.20
   7   2   3   38.50    8.30
   7   2   3   28.80    5.70
   0  -3   3  113.99   10.70
   0   3   3   97.19   13.10
   0   3  -3   98.59   10.20
   0   3  -3   87.79    9.50
   0  -3   3  101.79    9.70
   0  -3  -3   73.29   16.40
   1  -3   3   29.40    5.70
   1   3  -3   29.20    6.30
   1  -3   3   19.30    4.80
  -1  -3  -3   16.40    7.10
   1   3  -3   26.50    6.50
  -1   3   3   19.40    6.10
  -1   3  -3   30.30    5.60
  -1  -3   3   23.10    5.80
  -1  -3   3   24.80    5.70
  -1   3  -3   22.80    4.60
   1  -3  -3   16.50    5.90
   1  -3  -3   31.00    9.20
   1   3   3   14.10    5.90
   2   3  -3   -0.10    1.80
  -2   3   3    1.60    3.30
   2   3  -3    3.50    2.70
  -2  -3  -3   -0.20    4.30
  -2   3   3    2.50    3.30
   2  -3   3    0.80    1.40
   2   3   3    2.40    4.40
   2  -3  -3    2.30    4.00
  -2  -3   3   -2.30    2.00
  -2   3  -3    2.20    2.00
   2  -3  -3    0.60    1.90
  -2   3  -3    3.20    2.20
  -2  -3   3    1.70    2.60
  -3  -3  -3   12.10    4.30
   3   3  -3   16.10    5.00
   3   3  -3   18.90    5.30
  -3   3   3   13.50    5.40
  -3  -3  -3    1.90    6.80
  -3   3   3    9.90    5.00
  -3  -3   3    8.60    3.80
   3  -3  -3   14.20    6.00
   3   3   3   18.60    7.90
   4   3  -3   16.50    5.10
  -4   3   3   11.20    4.60
  -4  -3  -3    7.50    3.90
   4   3  -3   14.30    4.40
  -4   3   3   19.30    4.50
   4  -3  -3   13.80    5.50
   4   3   3    3.90    5.20
  -4  -3   3    2.60    3.40
   5   3  -3    9.10    3.80
   5   3  -3    1.40    2.70
  -5   3   3    1.10    2.00
  -5  -3  -3    0.60    3.10
  -5   3   3    9.20    4.00
   5  -3  -3    6.60    4.40
  -5  -3   3   -2.50    3.30
   6   3  -3   -0.30    3.00
   6   3  -3  -11.20    8.60
  -6   3   3   -4.80    3.10
  -6  -3  -3    4.40    3.30
  -6  -3   3   -2.10    3.60
  -6   3  -3    1.20    1.60
   6   3   3   -4.90    5.90
   6   3   3    2.20    2.90
  -7   3   3   12.70    4.70
   7   3  -3    1.00    4.30
  -7  -3  -3    0.40    4.10
  -7  -3   3   -1.60    4.10
   7   3   3    0.10    3.70
   7   3   3  -16.40    6.90
   0   4  -3   78.59    9.00
   0  -4  -3   84.59   18.00
   0   4   3   56.19   12.40
   0  -4  -3   77.49    9.00
   0   4  -3   77.69    9.00
   1   4  -3  417.96   32.00
  -1   4   3  486.35   35.90
  -1  -4  -3  497.65   33.00
   1  -4   3  488.65   29.90
  -1  -4  -3  486.05   42.20
   1   4  -3  468.75   33.00
   1  -4  -3  498.45   33.40
  -1  -4   3  501.45   32.80
   1   4   3  516.45   40.40
  -1   4  -3  491.05   30.90
   1  -4  -3  463.65   37.90
  -1   4  -3  462.95   31.00
  -2  -4  -3   93.59   21.10
  -2   4   3   75.79   10.40
   2   4  -3   62.49    8.80
  -2  -4  -3   64.79    8.80
   2   4  -3   57.89    8.60
   2  -4  -3   68.59    8.10
   2   4   3   69.79   14.10
   2  -4  -3   66.09    6.80
  -2   4  -3   55.29    6.50
  -2  -4   3   66.79    8.90
  -2   4  -3   60.39    6.70
   2  -4  -3   67.59   12.90
   3   4  -3  245.28   20.80
  -3  -4  -3  256.87   29.30
   3   4  -3  267.57   20.60
  -3  -4  -3  240.98   20.20
   3   4   3  267.97   26.70
  -3  -4   3  261.67   20.70
  -3   4  -3  257.07   16.50
   4   4  -3   47.10    8.90
  -4   4   3   43.60    7.20
  -4   4   3   34.70    8.40
  -4  -4  -3   38.60    7.60
  -4   4  -3   41.60    4.40
   4   4   3   49.99   12.30
   4  -4  -3   48.00    9.10
  -4  -4   3   38.00    7.70
   5   4  -3   83.79   19.00
  -5  -4  -3   87.29   10.50
   5   4  -3   91.69   11.00
   5   4  -3   93.39   10.10
  -5  -4   3   87.49   11.30
   5   4   3  107.89   15.70
   6   4  -3   13.70    4.80
  -6   4   3   10.40    5.30
  -6  -4  -3    5.80    4.30
  -6  -4   3   14.10    5.70
   6   4   3   17.60    8.90
   6   4   3    8.10    4.40
   0  -5   3  657.43   41.50
   0   5   3  623.34   48.90
   0  -5  -3  650.73   52.39
   0   5  -3  666.63   42.80
   0   5  -3  711.93   43.10
   0  -5  -3  653.13   42.60
   1   5  -3 1220.68   73.89
  -1   5   3 1251.27   78.09
  -1  -5  -3 1244.78   73.79
   1   5  -3 1205.78   73.49
   1  -5   3 1226.48   69.89
   1  -5  -3 1216.98   81.59
   1  -5  -3 1281.37   72.79
  -1   5  -3 1199.98   71.69
  -1  -5   3 1204.48   72.89
   1  -5  -3 1209.08   71.69
   1   5   3 1233.88   82.19
  -1   5  -3 1176.68   71.39
   2   5  -3  422.66   31.80
  -2  -5  -3  472.65   32.30
   2   5  -3  422.56   33.20
  -2   5   3  483.75   33.80
  -2  -5  -3  458.85   42.70
  -2   5  -3  483.45   36.00
  -2   5  -3  415.36   28.30
   2  -5  -3  457.85   36.70
  -2  -5   3  445.06   31.60
   2   5   3  479.65   39.70
  -2   5  -3  448.96   28.80
   2  -5  -3  465.15   28.60
   3   5  -3  724.43   45.50
  -3  -5  -3  685.23   56.49
   3   5  -3  688.13   44.40
  -3   5   3  650.93   46.50
  -3  -5  -3  645.54   44.20
  -3  -5   3  692.23   44.50
   3   5   3  712.63   52.79
   3  -5  -3  702.63   47.90
  -3   5  -3  659.53   39.80
  -4  -5  -3  205.78   17.60
   4   5  -3  219.28   18.30
   4   5  -3  220.28   17.50
  -4   5   3  154.18   15.60
  -4   5   3  181.88   16.40
  -4   5  -3  199.18   12.50
  -4  -5   3  207.88   17.60
   4  -5  -3  168.58   19.30
   4   5   3  173.68   22.10
   5   5  -3  269.57   22.40
   5   5  -3  278.17   21.00
  -5  -5  -3  272.07   22.00
   5   5   3  291.27   27.90
  -5  -5   3  282.47   22.20
   6   5  -3   74.29    9.90
   6   5  -3   53.99   16.10
  -6  -5  -3   79.39   10.30
  -6  -5   3   63.39   10.20
   6   5   3   61.59   10.20
   0  -6   3  427.16   29.80
   0   6   3  431.06   37.70
   0   6  -3  457.75   31.30
   0  -6  -3  478.65   31.60
   0  -6  -3  404.56   40.00
   0   6  -3  460.35   31.50
  -1  -6  -3   79.49   18.70
  -1  -6  -3   66.99    9.80
   1   6  -3   69.59   10.10
   1   6  -3   86.69   10.40
  -1   6   3  102.69   14.10
  -1   6  -3   70.99   15.90
   1   6   3   67.09   15.40
  -1   6  -3   82.79    9.50
   1  -6  -3   75.79    9.00
  -1  -6   3   81.79   10.00
  -1   6  -3   93.39    9.80
   1  -6  -3   86.39    9.90
   1  -6  -3   65.89   16.50
  -2  -6  -3  302.07   24.10
  -2   6   3  328.47   26.40
   2   6  -3  325.57   24.80
   2   6  -3  323.57   24.40
  -2  -6  -3  258.37   32.40
  -2   6  -3  330.37   29.00
  -2  -6   3  314.17   23.90
   2   6   3  327.37   31.80
  -2   6  -3  324.87   21.70
   2  -6  -3  264.87   23.00
   2  -6  -3  312.77   29.80
  -2   6  -3  297.87   21.60
   3   6  -3   49.40    9.20
  -3  -6  -3   28.30    6.90
  -3   6   3   78.19   12.90
   3   6  -3   32.00    7.20
   3  -6  -3   53.89   12.10
  -3   6  -3   41.40    6.10
  -3  -6   3   44.00    8.30
   3   6   3   41.70   14.40
  -3   6  -3   53.89    9.40
  -3   6  -3   42.60    5.30
   4   6  -3  160.08   15.30
  -4  -6  -3  164.88   15.60
   4   6  -3  175.18   33.30
   4   6  -3  146.79   15.30
  -4   6  -3  153.68   11.30
   4  -6  -3  157.08   17.30
   4   6   3  173.68   22.30
  -4  -6   3  153.48   15.20
   5   6  -3   23.60    7.10
   5   6  -3   23.90    6.10
   5   6  -3   22.10   13.60
  -5  -6  -3   21.40    5.50
   5   6   3   20.00   14.50
  -5   6  -3   29.10    3.80
  -5  -6   3   15.70    5.90
   6   6  -3   49.90    9.00
  -6  -6  -3   44.30    9.10
   6   6   3   43.80    8.60
   6   6   3   49.60   14.40
  -6  -6   3   34.80    8.30
   0  -7   3   21.80    5.50
   0   7  -3   25.40   10.10
   0   7   3   16.20    8.40
   0   7  -3   12.00    5.20
   0  -7  -3    5.60    7.40
   0  -7  -3   12.40    4.50
   0   7  -3   10.20    4.30
   1  -7   3   79.59    8.00
  -1  -7  -3   73.09    9.70
  -1   7   3   50.19   12.30
   1   7  -3   79.69   10.00
   1   7  -3   45.60   14.90
   1   7  -3   68.79    9.90
  -1  -7  -3   54.59   17.30
   1  -7  -3   69.89    9.10
   1  -7  -3   55.69   14.80
   1  -7  -3   73.09    8.90
   1   7   3   64.49   16.20
  -1  -7   3   68.59    9.30
  -1   7  -3   63.69   15.30
  -1   7  -3   80.49    9.60
  -1   7  -3   72.19    9.00
   2   7  -3    0.10    8.10
   2   7  -3   -3.80    2.30
  -2  -7  -3    5.50    7.90
  -2  -7  -3   -2.30    2.70
   2   7  -3    1.10    3.80
  -2   7   3    2.50    4.20
  -2  -7   3    0.00    3.30
  -2   7  -3    2.60    2.70
   2  -7  -3    0.80    2.30
   2  -7  -3    2.20    4.40
  -2   7  -3    1.00    5.40
   2   7   3    2.60    5.80
   2  -7  -3    4.10    6.50
  -2   7  -3   -1.40    2.00
  -3  -7  -3   47.90    8.90
  -3   7   3   43.50    9.50
   3   7  -3   19.00   12.10
   3   7  -3   30.70    7.10
   3   7  -3   54.09    9.80
  -3   7  -3   48.60    6.10
  -3  -7   3   48.20    8.70
  -3   7  -3   38.00    8.60
  -3   7  -3   53.79    7.60
   3   7   3   53.59   13.80
   3  -7  -3   48.70   11.80
   4   7  -3    5.40    4.20
  -4   7   3    3.60    6.30
  -4  -7  -3    2.70    4.20
   4   7  -3   12.10   15.30
  -4  -7   3    3.30    3.70
   4   7   3    7.10    8.50
  -4   7  -3    4.80    3.10
   4  -7  -3    0.80    6.00
   5   7  -3   39.60   21.10
   5   7  -3   19.80    6.60
  -5  -7  -3   21.00    6.80
  -5  -7   3   22.90    7.10
   5   7   3   31.50   11.40
  -5   7  -3   25.80    4.20
   0  -8  -3  478.55   32.60
   0   8  -3  473.45   43.90
   0  -8  -3  441.26   43.30
   0   8  -3  483.75   33.40
   0   8  -3  472.95   32.90
   0  -8   3  469.65   31.50
   0   8   3  449.06   39.80
  -1   8   3   49.60   13.20
  -1  -8  -3   30.10    7.50
   1   8  -3   38.80    8.10
   1   8  -3   33.00    7.50
  -1  -8  -3   25.50   12.90
   1   8  -3   53.49   17.20
   1  -8   3   32.00    5.90
  -1   8  -3   33.50    7.00
  -1  -8   3   29.10    6.80
   1  -8  -3   35.60   13.00
   1  -8  -3   36.30    7.10
   1   8   3   30.90   11.50
  -1   8  -3   29.90    7.30
  -1   8  -3   49.50   14.40
  -2  -8  -3  374.16   28.10
   2   8  -3  349.87   27.90
  -2   8   3  329.37   30.00
  -2   8  -3  385.26   26.30
   2  -8  -3  368.76   24.30
  -2   8  -3  393.86   33.90
   2  -8  -3  375.16   35.10
  -2  -8   3  354.86   27.20
  -2   8  -3  395.96   25.70
  -3  -8  -3   18.40    6.10
   3   8  -3   27.90    8.40
   3   8  -3   23.00    6.70
  -3   8   3   35.70    8.40
  -3  -8   3   14.80    5.10
   3  -8  -3   26.50    9.80
  -3   8  -3   22.10    7.90
  -3   8  -3   24.30    4.90
  -4   8   3  162.28   18.60
   4   8  -3  133.49   27.30
  -4  -8  -3  204.58   18.20
   4   8  -3  195.38   18.30
   4   8  -3  210.38   18.60
   4   8   3  180.88   25.50
  -4  -8   3  183.98   17.50
  -4   8  -3  188.18   14.50
   5   8  -3    9.30    4.90
  -5  -8  -3    6.60    5.10
  -5   8  -3    7.00    3.70
   0   9   3  147.99   21.00
   0   9  -3  135.59   24.60
   0   9  -3  154.38   15.50
   0  -9  -3  151.78   22.90
   0  -9  -3  139.89   13.90
   0   9  -3  127.59   16.30
   0  -9   3  127.19   12.70
  -1  -9  -3   21.10    6.00
  -1   9   3   20.80    9.10
   1   9  -3   20.10    6.00
   1   9  -3   19.80    6.70
   1  -9   3   24.00    5.20
   1   9  -3   20.90   11.30
   1  -9  -3   30.80    6.10
  -1   9  -3   57.99   16.50
   1   9   3   25.20   11.90
   1  -9  -3   22.00   12.10
  -1   9  -3   21.90    5.90
  -1   9  -3   24.10    6.40
   1  -9  -3   21.50    5.70
  -2   9   3   80.79   14.60
  -2  -9  -3   76.09   11.20
   2   9  -3   66.99   19.40
   2   9  -3   99.39   12.10
  -2   9  -3   94.09    9.90
   2  -9  -3   83.19   17.40
   2  -9  -3   93.69    9.20
  -2   9  -3  100.69   19.60
  -2  -9   3   99.09   11.70
  -2   9  -3   96.69   11.30
   3   9  -3    9.90    4.90
   3   9  -3    9.90    6.40
  -3  -9  -3   17.00    6.00
   3   9  -3   11.00   13.00
  -3   9   3   16.80    8.10
  -3  -9   3   19.40    6.50
  -3   9  -3   24.50    8.40
  -3   9  -3   14.50    4.20
  -3   9  -3   23.60    6.00
   3   9   3   16.10   11.60
  -4  -9  -3   73.49   10.60
   4   9  -3   52.39   10.00
  -4   9   3   75.99   13.30
  -4  -9   3   73.79   10.80
  -4   9  -3   64.79    8.80
   0  10   3  129.89   22.80
   0  10  -3  191.18   17.70
   0  10  -3  199.08   17.10
   0 -10   3  160.68   14.80
   0 -10  -3  167.38   15.80
   0  10  -3  205.48   27.70
   1  10  -3  -12.90    9.40
   1 -10   3    3.90    3.00
   1  10  -3    6.50    5.40
  -1  10   3    0.70    7.10
  -1 -10  -3    6.00    4.30
   1  10  -3    5.70    4.50
  -1  10  -3    7.10    3.70
   1  10   3    2.00    9.10
  -1 -10   3    2.40    3.70
   1 -10  -3    4.50    4.10
   1 -10  -3    6.30    4.40
  -1  10  -3    6.70    9.10
  -1  10  -3   -0.20    4.90
   2  10  -3  151.98   15.60
  -2 -10  -3  135.69   15.00
  -2  10   3  140.69   19.00
  -2 -10   3  172.38   15.70
  -2  10  -3  149.19   13.60
   2 -10  -3  157.48   12.40
  -2  10  -3  140.19   14.70
  -2  10  -3  139.89   21.50
  -3 -10  -3    4.50    4.50
  -3  10   3   13.80    6.80
   3  10  -3    7.20    4.50
  -3  10  -3    2.50    7.10
  -3  10  -3    3.50    3.50
  -3 -10   3    5.30    4.80
  -3  10  -3   -4.30    4.60
  -4  10   3   80.19   13.00
  -4 -10  -3   61.89   10.60
   4  10  -3   56.29   10.10
  -4 -10   3   64.99   10.90
  -4  10  -3   83.79   10.40
   0 -11  -3   -0.70    4.10
   0 -11   3    2.50    3.90
   0  11  -3   -1.30    3.30
   0  11  -3   -8.30   11.70
   1 -11   3  256.57   18.60
  -1  11   3  288.37   29.10
   1  11  -3  252.47   22.00
  -1 -11  -3  245.88   21.40
  -1  11  -3  259.07   20.90
   1 -11  -3  270.17   20.70
  -1  11  -3  223.98   30.00
  -1  11  -3  283.37   27.10
  -1 -11   3  272.47   21.00
  -2 -11  -3   -2.70    4.00
   2  11  -3    4.30    7.50
  -2  11   3   17.70    8.90
   2 -11  -3    2.70    3.20
  -2  11  -3   -1.60    3.20
  -2 -11   3    2.90    4.60
  -2  11  -3  -12.10    5.10
  -2  11  -3    3.60    9.50
   0 -12   3   35.40    7.00
   0  12  -3   44.80    9.00
   0 -12  -3   33.70    7.40
   0   0  -4 3965.70  219.88
   0   0   4 3827.72  222.68
   0   0   4 3924.21  218.88
   1   0   4  199.58   20.40
   1   0  -4  199.88   21.30
  -1   0  -4  195.48   20.40
  -1   0   4  232.98   18.40
   1   0  -4  249.97   18.90
  -1   0   4  169.78   18.90
  -1   0  -4  261.37   17.70
  -2   0   4 3754.82  209.08
  -2   0  -4 3813.02  213.48
   2   0  -4 3648.54  208.48
   2   0   4 3815.92  211.58
  -2   0   4 3864.11  212.18
   2   0  -4 3770.62  214.38
   3   0  -4  113.29   13.60
  -3   0   4  126.59   11.60
   3   0   4  107.79   11.70
   3   0  -4  109.09   10.30
  -3   0  -4  122.09   14.40
  -3   0   4  107.69   11.70
  -4   0   4 1152.28   68.79
  -4   0  -4 1138.49   72.79
   4   0   4 1155.08   68.19
  -4   0   4 1164.38   68.39
   4   0  -4 1143.49   65.79
   4   0  -4 1190.58   72.39
  -5   0   4   32.80    6.50
  -5   0   4   37.00    6.80
   5   0  -4   36.40    9.10
   5   0   4   48.70    7.40
  -6   0  -4  433.36   28.40
  -6   0   4  468.55   30.10
  -7   0   4    9.70    4.50
   7   0  -4   -0.60    6.30
   7   0  -4    7.90    9.70
  -7   0  -4   -1.80    3.50
   0  -1   4  128.49   13.50
   0  -1  -4  107.69   13.00
   0   1   4  122.89   14.70
   0  -1   4  115.69   12.70
   0   1   4   85.79   10.90
   0   1  -4   96.79   11.80
   0  -1  -4  118.29   15.50
   0   1  -4  134.79   14.40
  -1   1   4   57.09   13.40
  -1  -1  -4   77.09   14.50
   1   1  -4   40.60    9.00
   1   1  -4   67.99    8.20
  -1   1  -4   27.80    7.40
  -1  -1   4   62.89    9.00
  -1   1  -4   46.80   10.60
   1  -1  -4   48.10    9.50
   1  -1  -4   36.00    9.90
   1   1   4   57.29   10.70
   2   1  -4   97.89   11.60
  -2   1   4  103.89   11.10
  -2  -1  -4  115.29   14.60
  -2   1   4   73.19   11.40
   2   1  -4  106.99   10.80
   2  -1   4  114.79   12.80
   2   1   4  100.99   12.10
  -2   1  -4  106.99   12.50
  -2  -1   4  104.69   10.90
  -2   1  -4  111.19    9.00
   2  -1  -4  102.59   10.30
  -2  -1   4  111.19   11.80
   2  -1  -4  102.49   20.30
  -3   1   4   22.20    5.30
   3  -1   4   15.90    5.60
   3   1  -4   23.50    6.30
  -3   1   4   23.90    6.30
   3   1  -4   31.60    6.30
  -3  -1  -4   24.40    9.20
   3   1   4   27.20    6.60
  -3  -1   4   20.10    5.60
  -3   1  -4   17.70    5.90
   3  -1  -4   20.10    7.40
   3  -1  -4   19.10    4.20
  -3  -1   4   19.70    5.40
   4   1  -4   50.29    6.30
   4   1  -4   41.20    8.20
  -4   1   4   46.40    7.60
  -4   1   4   39.90    7.30
  -4  -1  -4   51.29   11.90
  -4  -1   4   40.10    8.10
   4  -1  -4   41.90    4.60
   4   1   4   46.40    8.60
   4  -1  -4   32.80    9.80
  -4  -1   4   55.89    7.80
  -5   1   4    3.10    3.00
   5   1  -4    5.80    3.90
   5   1  -4    7.00    2.50
  -5   1   4   -0.20    2.70
  -5  -1   4   10.10    4.10
   5  -1  -4    5.60    5.40
   5   1   4    4.50    4.20
   6   1  -4    9.30    5.10
  -6  -1  -4    7.00    3.90
  -6   1   4   13.80    4.20
   6  -1  -4    9.60    6.00
   6   1   4   16.20    3.90
   6   1   4   18.50    5.30
  -6   1  -4   18.80    3.70
  -6  -1   4    5.20    4.90
   7   1  -4   15.10   10.20
   7   1  -4    6.90    6.30
  -7  -1  -4   -6.10    3.40
  -7   1   4    6.10    3.90
  -7   1  -4    5.40    3.10
   7  -1  -4    1.20    5.50
  -7  -1   4    1.90    4.10
   7  -1  -4    3.90    8.50
   0  -2   4   22.10    5.30
   0   2  -4   27.20    6.70
   0   2  -4   30.60    6.50
   0  -2  -4   24.60    6.30
   0  -2   4   25.70    5.90
   0   2   4   18.80    5.80
   1   2  -4  768.12   48.10
  -1   2   4  585.04   48.50
   1   2  -4  760.92   47.10
  -1   2   4  761.32   52.19
  -1  -2  -4  776.22   53.89
   1  -2   4  824.02   47.40
   1  -2  -4  761.82   49.90
   1   2   4  726.03   50.09
  -1   2  -4  775.72   48.80
  -1  -2   4  752.52   47.90
  -1  -2   4  738.83   46.50
   2   2  -4   34.50    7.60
  -2  -2  -4   33.60   10.50
   2  -2   4   47.90    6.10
  -2   2   4   23.70    7.00
  -2   2   4   34.40   10.60
   2   2  -4   39.90    7.30
   2  -2  -4   27.80    9.00
   2   2   4   34.60    9.00
  -2   2  -4   24.30    5.90
  -2  -2   4   40.80    7.80
   2  -2  -4   42.10    7.40
  -2  -2   4   43.70    9.10
  -2   2  -4   24.90    7.40
   3  -2   4  396.16   24.20
  -3   2   4  383.86   28.80
   3   2  -4  365.66   26.70
  -3  -2  -4  399.86   35.20
   3   2  -4  377.36   28.20
  -3   2   4  408.66   27.70
  -3  -2   4  411.26   28.00
   3   2   4  369.26   30.40
  -3   2  -4  393.16   26.30
  -3  -2   4  379.06   28.00
   3  -2  -4  371.06   24.20
  -4   2   4   -0.50    2.90
   4   2  -4    5.00    3.40
  -4   2   4   10.60    4.00
   4   2  -4    4.20    3.00
  -4  -2  -4   11.30    7.40
   4  -2  -4    4.40    4.40
  -4  -2   4   14.20    4.80
   4   2   4   13.10    6.10
  -4  -2   4    7.80    3.90
  -5   2   4  137.69   12.10
  -5   2   4  116.99   11.10
   5   2  -4  139.89   11.40
   5   2  -4  144.69   13.90
  -5  -2  -4  131.99   12.30
   5  -2  -4  101.49   13.90
  -5  -2   4  137.49   13.10
   5   2   4  135.69   14.90
  -6   2   4    6.30    3.80
  -6  -2  -4    3.00    3.50
   6   2  -4    1.30    3.80
   6  -2  -4    5.00    5.10
   6   2   4   -0.70    3.10
   6   2   4    7.10    5.10
  -6  -2   4    2.30    3.80
   7   2  -4   22.80   12.40
  -7   2   4   38.10    8.80
   7   2  -4   41.30    8.70
  -7  -2  -4   43.20    7.50
  -7  -2   4   39.90    7.60
   7   2   4   48.20    6.70
   7   2   4   34.80    8.10
  -7   2  -4   28.90    4.70
   0  -3  -4  328.47   23.30
   0   3  -4  319.27   23.30
   0   3  -4  338.27   24.10
   0  -3   4  311.57   23.40
   0   3   4  291.97   26.20
   0  -3  -4  313.67   29.30
   1   3  -4  129.59   13.30
   1   3  -4  120.69   12.50
   1  -3   4  135.99   12.10
  -1  -3  -4  119.19   17.30
  -1   3   4  141.89   15.40
  -1  -3   4  118.49   12.80
   1  -3  -4  128.99   16.80
  -1  -3   4  131.19   12.70
   1   3   4  136.29   16.40
  -1   3  -4  155.58   13.00
  -1   3  -4  130.79   12.30
  -2   3   4  187.48   22.00
   2   3  -4  250.87   19.70
  -2   3   4  245.98   21.30
   2   3  -4  262.77   20.70
   2  -3   4  231.98   16.80
  -2  -3  -4  245.38   26.70
   2   3   4  283.37   25.20
   2  -3  -4  310.97   25.70
  -2  -3   4  278.97   20.40
   2  -3  -4  243.48   19.00
  -2   3  -4  196.18   19.00
  -2  -3   4  222.98   19.80
   3   3  -4   72.39    9.10
   3   3  -4   76.59    9.60
  -3  -3  -4   71.89   15.90
   3  -3  -4   71.39   13.30
  -3  -3   4   59.99    8.80
   3   3   4   63.49   12.60
   3  -3  -4   61.69    6.30
  -3   3  -4   42.80    7.60
  -3  -3   4   73.59    9.70
   4   3  -4  100.79   11.80
  -4   3   4  101.89   11.10
  -4  -3  -4   96.49   10.90
  -4  -3  -4  106.69   19.80
   4   3  -4  105.39   11.10
  -4   3   4   81.69   11.40
  -4   3  -4  115.29    8.10
   4   3   4  108.99   15.10
   4  -3  -4  115.59   14.10
  -4  -3   4   99.59   11.40
  -5   3   4   17.20    5.60
  -5  -3  -4   25.10    5.70
   5   3  -4   21.10    5.10
  -5   3   4   19.60    4.40
   5   3  -4   20.30    6.20
   5  -3  -4   26.10    7.50
   5   3   4   28.60    8.70
  -5  -3   4   14.60    5.30
  -6   3   4   41.70    7.70
  -6  -3  -4   27.90    7.00
   6   3  -4   38.60    7.90
   6  -3  -4   28.30    6.70
   6   3   4   49.30    7.40
   6   3   4   37.70    9.30
  -6  -3   4   31.20    7.20
   0   4  -4 2288.27  131.09
   0  -4   4 2243.58  129.29
   0  -4   4 2281.37  130.99
   0  -4  -4 2389.86  141.19
   0   4  -4 2257.97  130.29
   0   4   4 2355.26  137.29
   1   4  -4   76.79    9.90
  -1   4   4   74.79   11.40
   1  -4   4   64.99    8.20
   1  -4   4   78.09    8.70
  -1  -4  -4   70.09   15.70
   1   4  -4   76.99    9.70
   1  -4  -4   80.49   16.10
   1  -4  -4   63.69   11.40
  -1   4  -4   87.59    9.50
  -1  -4   4   67.19    9.10
  -1  -4   4   71.29    9.60
  -1   4  -4   89.39    9.10
   1   4   4   77.19   15.30
   2   4  -4 1405.66   81.99
   2   4  -4 1387.26   82.69
  -2   4   4 1460.65   85.99
  -2  -4  -4 1331.47   92.89
  -2   4  -4 1409.66   79.59
  -2  -4   4 1332.97   82.49
   2  -4  -4 1308.17   86.69
   2   4   4 1350.46   88.89
  -2  -4   4 1353.96   81.59
  -2   4  -4 1399.16   79.09
  -3  -4  -4   40.20    7.70
  -3   4   4   56.59   12.40
  -3   4   4   14.70    6.60
  -3  -4  -4   43.20   13.70
   3   4  -4   27.10    6.90
   3   4  -4   34.20    8.40
   3  -4  -4   36.90    4.50
   3   4   4   35.90   12.00
   3  -4  -4   35.90   10.00
  -3   4  -4   35.90    5.90
   3  -4  -4   36.50    4.40
  -3  -4   4   37.30    7.80
  -4   4   4  732.03   48.00
  -4  -4  -4  744.23   58.99
   4   4  -4  759.62   47.60
   4   4  -4  760.02   49.30
  -4   4   4  802.52   50.19
  -4  -4  -4  765.32   48.20
  -4  -4   4  748.03   48.50
   4  -4  -4  783.62   50.69
   4   4   4  739.33   53.99
  -5   4   4   14.30    5.80
  -5  -4  -4    9.60    4.30
   5   4  -4   12.40    4.80
  -5   4   4   12.50    3.90
   5   4   4    6.10    6.70
  -5  -4   4   10.60    4.90
   5  -4  -4   10.90    5.70
  -5   4  -4   17.30    3.60
  -6  -4  -4  234.98   18.50
   6   4  -4  190.58   29.30
   6   4  -4  220.68   19.10
   6   4   4  199.68   22.40
  -6  -4   4  209.58   18.60
   6   4   4  239.68   18.60
   0  -5   4  512.25   32.60
   0  -5  -4  499.35   42.70
   0   5  -4  482.35   33.30
   0   5  -4  471.65   33.50
   0  -5  -4  494.95   33.70
   0   5   4  489.05   39.30
  -1   5   4  134.69   16.00
   1   5  -4  109.89   12.50
  -1  -5  -4  126.49   19.70
   1   5  -4  110.99   12.70
   1  -5   4  109.29   10.60
  -1  -5  -4  126.89   12.90
  -1  -5   4  121.99   12.50
   1  -5  -4  138.79   18.80
  -1   5  -4  118.79   11.70
   1  -5  -4  133.49   13.70
  -1   5  -4  126.69   12.10
   1  -5  -4  126.29   12.10
   1   5   4  135.39   18.10
   2   5  -4  344.47   26.60
  -2  -5  -4  362.66   36.30
   2   5  -4  355.36   26.40
  -2  -5  -4  379.86   26.90
  -2   5   4  348.67   28.30
   2  -5  -4  286.07   25.10
   2  -5  -4  353.46   23.80
  -2  -5   4  356.56   26.20
   2  -5  -4  367.66   31.60
  -2   5  -4  339.27   23.60
   2   5   4  395.16   33.80
  -3   5   4   54.49   11.90
   3   5  -4   81.59   10.60
   3   5  -4   65.49    9.80
  -3  -5  -4   69.39    9.50
  -3  -5  -4   72.99   17.70
  -3   5  -4   66.69    8.60
   3  -5  -4   88.69   13.50
   3  -5  -4   72.69    6.30
  -3   5  -4   66.79   11.30
  -3   5  -4   85.89    7.70
   3  -5  -4   73.99    6.20
  -3  -5   4   57.59   10.00
   3   5   4   70.79   15.20
   4   5  -4  172.88   15.80
  -4  -5  -4  146.69   15.00
   4   5  -4  161.08   16.00
  -4   5  -4  158.48   11.50
   4   5   4  167.98   21.10
   4  -5  -4  166.48   17.60
  -4  -5   4  173.28   16.10
   5   5  -4   24.80    6.80
   5   5  -4   36.10    7.10
  -5   5   4   24.10    5.40
  -5  -5  -4   23.10    6.30
  -5   5   4   32.10    7.50
   5  -5  -4   30.10    7.80
   5   5   4   20.10   10.10
  -5   5  -4   30.10    3.90
  -5  -5   4   33.60    7.70
  -6  -5  -4   45.50    8.60
   6   5  -4   31.40   15.90
  -6   5   4   46.20    9.10
   6   5  -4   47.50    9.10
  -6  -5   4   50.49    9.40
   6   5   4   47.10    8.10
   6   5   4   65.09   14.10
   0  -6  -4   -3.50    4.70
   0   6  -4    1.60    3.40
   0   6   4   -1.60    4.10
   0   6  -4    2.40    2.70
   0  -6  -4    1.80    2.80
   0  -6   4   -1.70    2.30
   1   6  -4   27.70    7.20
  -1  -6  -4   18.30    5.80
   1   6  -4   16.30    5.30
   1  -6   4   24.50    5.10
  -1  -6  -4   11.90    7.90
  -1   6   4   22.80    8.30
  -1   6  -4   22.40    5.80
   1  -6  -4   20.20    9.00
   1  -6  -4   27.20    6.00
   1   6   4   12.70    8.60
  -1  -6   4   25.30    6.60
   1  -6  -4   31.90    7.30
  -1   6  -4   16.50    5.30
   2   6  -4   19.80    6.40
  -2  -6  -4   17.60    5.30
   2   6  -4    9.40    4.40
  -2  -6  -4    9.40    8.80
  -2   6   4   20.30    7.60
  -2   6  -4   19.90    4.90
  -2   6  -4   12.70    3.90
   2  -6  -4   15.80    5.90
  -2  -6   4   10.90    4.80
   2  -6  -4   13.60    4.00
   2   6   4   14.50    7.30
   2  -6  -4    6.80    7.40
   3   6  -4   11.20    5.20
  -3   6   4   29.10    8.90
   3   6  -4   13.80    5.00
  -3  -6  -4    8.00    8.20
  -3  -6  -4    7.30    4.50
   3  -6  -4   11.90    7.50
   3   6   4   14.10    9.20
   3  -6  -4   15.70    2.90
  -3   6  -4   13.50    3.80
  -3   6  -4   18.20    6.20
  -3   6  -4   16.00    4.10
  -3  -6   4   18.50    5.60
   3  -6  -4   13.60    3.00
  -4  -6  -4   -3.10    2.90
   4   6  -4    3.80    4.30
   4   6  -4   -1.10    3.30
  -4   6   4   -1.00    5.20
  -4  -6   4   -2.90    3.20
   4   6   4   -1.70    6.40
   4  -6  -4    4.50    5.50
  -4   6  -4    0.90    2.20
  -5   6   4   15.30    4.40
  -5  -6  -4    9.30    4.80
   5   6  -4    0.20   11.30
   5   6   4   17.40   11.10
   5  -6  -4   14.00    6.60
  -5  -6   4   10.20    5.30
   6   6  -4    4.20    4.00
  -6  -6  -4    4.00    4.40
   6   6   4  -21.50    8.90
   6   6   4    1.80    4.10
   0   7  -4   40.10    8.40
   0  -7  -4   42.60    8.60
   0  -7   4   48.80    8.40
   0   7   4   46.90   14.00
   0   7  -4   45.40    8.90
   0  -7  -4   41.30   14.50
   1  -7   4   92.39    9.20
   1   7  -4  102.09   11.90
  -1  -7  -4   68.29   18.40
   1   7  -4   88.39   10.80
  -1  -7  -4   94.79   11.30
  -1   7   4   72.19   14.60
   1  -7  -4   64.99   16.10
  -1   7  -4   91.19   18.10
  -1  -7   4   92.19   10.70
  -1   7  -4   83.89   10.60
   1  -7  -4  105.09   11.80
  -1   7  -4   85.49   10.10
   1  -7  -4   98.29   10.40
   1   7   4   69.89   15.20
   2   7  -4   37.90    8.10
  -2  -7  -4   27.70    7.20
  -2   7   4   28.30    8.30
  -2  -7  -4   26.10   10.80
   2  -7  -4   30.80    8.30
  -2   7  -4   24.80    8.90
  -2   7  -4   28.50    6.10
  -2  -7   4   21.00    6.00
   2   7   4   25.00   10.50
  -2   7  -4   27.20    5.80
   2  -7  -4   34.90    6.10
   2  -7  -4   15.30    9.10
   3   7  -4   59.29    9.10
  -3  -7  -4   54.39   16.90
  -3  -7  -4   59.49   10.20
  -3  -7   4   43.20    8.80
   3  -7  -4   50.29   12.40
  -3   7  -4   53.89    7.40
   3  -7  -4   56.59    5.20
  -3   7  -4   57.59   11.60
   3  -7  -4   65.89    5.80
  -3   7  -4   56.09    6.90
   4   7  -4   14.20   12.10
  -4   7   4    2.70    6.30
   4   7  -4   25.80    8.00
   4   7  -4   12.60    5.80
  -4  -7  -4    9.80    4.80
  -4   7  -4   21.70    4.40
  -4  -7   4   23.10    6.50
   4  -7  -4   14.80    7.30
  -5  -7  -4   20.10    6.60
   5   7  -4   34.40    7.70
  -5   7   4   25.10    6.00
   5   7  -4   24.80    7.00
  -5  -7   4   32.40    7.40
   5  -7  -4   27.50    8.40
  -5   7  -4   31.30    4.70
   5   7   4   24.90   12.40
   0   8  -4  464.85   30.60
   0  -8  -4  406.56   29.20
   0   8  -4  388.76   29.00
   0  -8   4  395.36   28.00
   0  -8  -4  408.16   40.10
   0   8   4  421.26   36.60
   0   8  -4  375.56   39.20
  -1   8   4  336.67   30.00
  -1  -8  -4  300.27   28.50
  -1  -8  -4  339.57   36.10
   1   8  -4  322.87   35.80
   1  -8   4  328.17   22.00
   1   8  -4  345.17   29.20
   1   8  -4  331.87   25.40
  -1  -8   4  314.77   24.00
   1  -8  -4  304.47   23.30
  -1   8  -4  287.07   31.80
  -1   8  -4  305.17   23.80
   1  -8  -4  336.47   24.40
  -1   8  -4  319.77   23.80
   1  -8  -4  340.77   34.70
  -2  -8  -4  358.76   38.40
   2   8  -4  360.46   27.10
  -2   8   4  339.17   29.20
  -2  -8  -4  340.77   26.60
   2   8  -4  297.97   36.00
   2  -8  -4  273.67   25.50
  -2   8  -4  335.37   34.90
   2  -8  -4  382.26   35.20
  -2  -8   4  362.86   26.40
  -2   8  -4  376.36   25.20
   2  -8  -4  358.96   23.70
  -2   8  -4  371.76   24.70
   3   8  -4  204.98   18.50
  -3   8   4  217.08   20.50
  -3  -8  -4  200.38   18.40
   3   8  -4  223.88   30.10
   3   8  -4  195.28   18.80
  -3   8  -4  204.68   16.20
   3  -8  -4  206.18   13.80
  -3  -8   4  185.48   17.50
   3  -8  -4  209.08   12.70
   3  -8  -4  155.18   21.90
  -3   8  -4  189.58   20.60
   3   8   4  188.38   25.30
  -3   8  -4  209.88   15.40
  -4  -8  -4  173.38   16.70
   4   8  -4  147.19   16.70
   4   8  -4  183.88   17.30
  -4   8  -4  167.28   13.80
   4   8   4  154.68   26.90
   4  -8  -4  198.58   21.20
  -4  -8   4  183.58   17.00
   5   8  -4   95.79   14.70
  -5  -8  -4   61.49   14.60
  -5   8   4   67.79   10.40
  -5  -8   4   84.49   11.80
  -5   8  -4   89.89    8.60
   0   9  -4    9.30   10.00
   0   9  -4    6.90    4.90
   0   9  -4    1.10    2.80
   0  -9   4   -1.40    2.70
   0  -9  -4    8.30    8.50
   0   9   4    2.80    7.40
  -1   9   4   49.00   12.50
   1   9  -4   69.09   21.40
  -1  -9  -4   55.09    9.80
  -1  -9  -4   73.69   19.70
   1  -9   4   56.49    7.30
   1   9  -4   64.49    8.90
  -1   9  -4   55.39    8.20
  -1   9  -4   57.09   15.70
  -1  -9   4   62.59    9.20
  -1   9  -4   75.09   11.40
   1  -9  -4   65.89   10.00
   1  -9  -4   45.50    8.00
   1  -9  -4   50.09   15.40
   2   9  -4   10.00   12.60
   2   9  -4   -1.50    4.70
  -2  -9  -4   -1.60    3.40
   2   9  -4   -3.50    2.40
  -2   9   4   -6.10    5.60
  -2   9  -4    1.00    4.00
   2  -9  -4   -0.80    5.50
  -2   9  -4    1.50    2.70
   2  -9  -4    0.40    2.70
  -2  -9   4    4.40    3.60
   2  -9  -4   -4.10    7.50
   2   9   4  -12.40    6.50
  -2   9  -4   -7.60    7.30
  -3   9   4   41.00    9.50
   3   9  -4   29.50    7.20
  -3  -9  -4   27.30    7.40
  -3   9  -4   21.70    9.00
  -3   9  -4   53.29    8.10
  -3  -9   4   36.90    8.30
   3  -9  -4   47.90   13.00
  -4  -9  -4   -4.10    6.60
  -4   9   4   -8.00    7.10
   4   9  -4   -2.60    3.40
  -4   9  -4   -8.20    3.80
   4  -9  -4   -1.90    7.80
   0  10  -4   32.40    8.20
   0 -10   4   24.50    5.90
   0  10  -4   16.00   14.10
   0 -10  -4   11.40    4.90
   0  10   4   30.60   12.30
   0  10  -4   23.60    6.10
   0 -10  -4   14.00    9.80
   1  10  -4   39.20   15.70
  -1  10   4   49.80   15.60
   1 -10   4   40.00    6.60
   1  10  -4   34.30    7.70
  -1 -10  -4   31.80    7.50
   1  10  -4   44.40   10.30
  -1  10  -4   30.30    7.10
  -1 -10   4   30.80    7.10
  -1  10  -4   29.00   13.40
   1  10   4   21.50   11.00
   1 -10  -4   31.50    7.50
   1 -10  -4   26.40   13.30
  -1  10  -4   28.20    8.70
   1 -10  -4   41.60    7.40
   2  10  -4    3.70    4.00
  -2  10   4   -7.10    6.50
  -2 -10  -4    7.00    4.40
  -2  10  -4    1.30    3.10
  -2  10  -4    6.30    8.50
  -2 -10   4    3.20    4.20
  -2  10  -4    1.10    5.10
   2 -10  -4    3.40    3.40
   2 -10  -4    2.50    9.00
   2 -10  -4    3.50    6.10
  -3 -10  -4   30.80    9.90
   3  10  -4   27.00    9.20
  -3  10   4   22.20    8.80
  -3  10  -4   37.80    6.50
  -3  10  -4   21.90   10.00
  -3  10  -4   35.90    7.60
  -3 -10   4   29.20    7.50
   0 -11   4   50.69    8.20
   0  11  -4   48.60    9.50
   0 -11  -4   63.09    9.90
  -1 -11  -4   20.70    6.80
   1  11  -4   30.20    7.70
   1 -11   4   34.90    6.00
  -1  11  -4   24.20   13.50
   1 -11  -4   31.10    6.50
  -1 -11   4   22.80    6.50
  -1  11  -4   28.00    7.30
  -2  11   4   68.89   14.50
   2  11  -4   47.30    9.40
  -2 -11   4   32.30    7.90
  -2  11  -4   30.00    8.60
  -2  11  -4   44.30    8.00
   2 -11  -4   59.69    7.40
   2 -11  -4   27.10    8.60
  -2  11  -4   51.39   14.80
   0   0  -5 2208.88  127.99
   0   0  -5 2204.28  132.79
   0   0   5 2131.39  126.69
   1   0   5   28.50    9.10
   1   0  -5   29.60    7.60
  -1   0  -5   49.40    9.00
   1   0  -5   21.40    8.20
  -1   0   5   39.80    9.00
  -2   0  -5 1309.97   73.09
   2   0  -5 1096.09   79.89
   2   0  -5 1316.27   75.49
  -2   0   5 1300.37   75.49
  -2   0   5 1317.87   79.09
   2   0   5 1224.08   78.49
   3   0  -5   12.50    5.80
   3   0  -5    6.40    3.60
  -3   0   5   10.90    4.60
   3   0   5   11.20    5.00
  -3   0   5    9.20    4.10
   4   0   5  570.64   36.60
  -4   0   5  530.75   36.10
  -4   0   5  537.55   35.50
   4   0  -5  561.64   33.70
   4   0  -5  511.95   39.80
  -4   0  -5  507.75   41.40
  -5   0   5    2.80    3.90
  -5   0   5    3.20    3.20
   5   0  -5    1.60    2.10
   5   0   5    0.70    4.40
   5   0  -5    8.90    5.70
   6   0  -5  111.69   16.00
  -6   0  -5  160.58   12.50
  -6   0   5  166.48   15.50
  -7   0  -5   -0.70    3.50
   7   0  -5    6.10    6.50
  -7   0   5    5.60    4.40
   0  -1   5   97.59   13.70
   0   1   5  146.39   14.60
   0   1  -5  149.79   15.00
   0  -1  -5  179.88   20.00
   0  -1  -5  118.79   14.80
  -1   1   5    3.10    3.90
   1   1  -5    0.70    2.30
   1   1  -5   -0.90    2.60
  -1   1   5    5.40    5.00
   1  -1   5    5.70    4.10
  -1  -1  -5   -0.90    2.20
  -1  -1  -5    4.40    4.30
  -1   1  -5   -1.00    3.90
   1  -1  -5   -0.80    2.70
   1   1   5    1.10    2.90
  -1   1  -5   -1.70    3.30
  -1  -1   5    1.30    2.60
   1  -1  -5    1.90    4.20
  -1  -1   5    5.40    4.10
   2   1  -5  422.16   28.60
  -2  -1  -5  385.46   33.10
  -2   1   5  385.56   29.20
   2  -1   5  436.16   31.30
   2   1  -5  395.46   30.40
  -2   1  -5  337.67   30.20
  -2  -1   5  408.76   28.30
   2  -1  -5  387.76   28.20
  -2   1  -5  399.26   26.90
   2   1   5  403.76   30.20
  -2  -1   5  367.46   29.50
   2  -1  -5  414.26   35.10
  -3   1   5    3.10    2.80
   3  -1   5    2.60    3.90
   3   1  -5    1.20    2.90
  -3  -1  -5    3.50    4.90
  -3   1   5    0.30    3.40
   3   1  -5    1.40    2.50
   3  -1  -5   -0.20    4.00
  -3  -1   5   -2.80    2.10
   3  -1  -5   -3.60    2.00
   3   1   5   -3.70    2.80
  -3  -1   5    2.20    2.60
  -3   1  -5    2.60    4.50
   4  -1   5  145.79   12.70
   4   1  -5  115.59   11.00
  -4   1   5   99.19   11.30
   4   1  -5  123.09   13.80
  -4   1   5  130.39   12.70
  -4  -1  -5  118.29   17.10
   4   1   5  118.39   12.60
  -4  -1   5  118.59   12.20
  -4   1  -5   93.09   13.00
   4  -1  -5  129.59   17.20
   4  -1  -5  113.19    9.70
  -5   1   5    3.50    2.90
   5   1  -5   -0.40    2.50
  -5   1   5    1.50    3.00
   5   1  -5    0.40    3.80
   5  -1  -5   -2.90    4.60
  -5  -1   5    0.30    3.10
  -5  -1   5   -3.30    2.90
   5   1   5    2.60    3.90
   6   1  -5   52.89   10.90
  -6  -1  -5   41.80    7.10
  -6   1   5   55.69    8.50
  -6  -1   5   58.79    9.20
   6   1   5   59.09    8.80
   6  -1  -5   59.09   11.90
   6   1   5   47.90    6.60
   7   1  -5   -1.50    6.10
   7  -1  -5   10.50    6.30
   0  -2   5 1574.94   94.49
   0   2   5 1565.64   98.39
   0   2  -5 1614.74   95.39
   0  -2  -5 1607.34  102.79
   0  -2  -5 1613.94   96.19
   0   2  -5 1670.23   96.49
   0  -2   5 1644.94   96.29
   1   2  -5   25.40    7.30
  -1  -2  -5   18.60    4.90
   1  -2   5   19.30    6.00
  -1   2   5   25.70    7.20
   1   2  -5   17.00    5.70
   1  -2   5   29.10    6.30
  -1  -2  -5   36.30   10.70
  -1   2   5   29.60    9.40
   1   2   5   19.30    6.40
  -1  -2   5   20.80    5.60
   1  -2  -5   23.90    7.40
   1  -2  -5   32.20   11.20
  -1  -2   5   18.20    5.70
  -1   2  -5   15.50    5.10
  -2  -2  -5 1234.08   78.69
   2   2  -5 1173.68   71.69
  -2   2   5 1187.68   76.09
   2  -2   5 1167.18   69.89
   2   2  -5 1135.99   69.79
  -2  -2   5 1175.98   71.49
   2   2   5 1212.38   73.69
  -2  -2   5 1248.68   70.39
   2  -2  -5 1100.49   69.79
  -2   2  -5 1001.80   71.59
  -3   2   5   18.70    6.40
   3   2  -5   14.30    5.20
   3  -2   5   13.90    4.30
   3   2  -5   12.50    4.50
  -3   2   5    8.60    4.90
  -3  -2  -5   16.10    8.20
  -3   2  -5   15.70    3.80
  -3  -2   5    3.90    3.50
  -3  -2   5   10.20    4.40
   3   2   5   21.70    7.60
  -3   2  -5    9.40    5.20
   3  -2  -5   10.50    6.00
   3  -2  -5   17.50    4.50
   4   2  -5  508.55   36.00
  -4   2   5  527.75   35.20
  -4  -2  -5  571.84   43.80
  -4   2   5  509.15   34.60
   4   2  -5  512.55   33.60
  -4  -2   5  494.55   34.80
   4   2   5  530.45   37.10
  -4  -2   5  511.35   35.50
   4  -2  -5  505.15   30.50
  -5   2   5    5.60    4.00
  -5   2   5    5.90    3.30
   5   2  -5    9.40    3.80
   5   2  -5    4.10    3.40
   5  -2  -5    3.40    4.70
   5   2   5    6.40    5.10
  -5  -2   5    3.90    3.50
  -6   2   5  156.58   14.60
  -6  -2  -5  164.08   14.10
  -6   2   5  160.78   13.50
  -6  -2   5  176.38   15.50
   6  -2  -5  129.89   16.30
   0  -3   5 1323.27   77.29
   0   3  -5 1242.68   76.99
   0   3  -5 1288.57   76.79
   0  -3  -5 1271.97   76.79
   0  -3  -5 1275.27   85.29
   0  -3   5 1281.87   75.49
  -1   3   5  954.40   60.49
   1  -3   5  865.81   54.79
   1   3  -5  914.91   56.79
   1   3  -5  876.51   55.49
   1  -3   5  933.71   55.09
  -1   3  -5  895.11   55.89
  -1  -3   5  934.61   55.29
  -1  -3   5  889.11   56.49
  -1   3  -5  897.81   55.49
   1  -3  -5  895.61   63.29
   1   3   5  844.32   59.19
   1  -3  -5  752.32   57.39
  -2  -3  -5  636.24   50.99
   2  -3   5  629.84   40.20
  -2   3   5  673.63   44.90
   2   3  -5  641.44   43.60
   2   3  -5  636.04   42.30
  -2  -3   5  628.24   42.30
   2   3   5  698.53   47.80
   2  -3  -5  667.73   49.40
  -3   3   5  401.46   34.00
   3   3  -5  491.45   34.30
   3  -3   5  482.95   29.10
  -3  -3  -5  422.36   40.20
   3   3  -5  473.65   34.70
   3   3   5  475.15   37.00
  -3   3  -5  499.95   32.20
  -3  -3   5  492.45   34.20
   3  -3  -5  532.55   39.50
   3  -3  -5  487.15   30.30
  -3  -3   5  479.35   33.10
  -3   3  -5  444.46   32.20
   4   3  -5  389.36   27.60
  -4   3   5  405.36   29.20
  -4  -3  -5  407.76   37.50
   4   3  -5  417.46   29.90
  -4  -3   5  405.36   29.40
   4  -3  -5  452.65   33.70
   4  -3  -5  392.96   22.80
  -4  -3   5  403.26   28.90
  -4   3  -5  346.37   25.50
   4   3   5  391.16   36.00
  -5  -3  -5  189.88   15.80
  -5   3   5  182.88   14.90
   5   3  -5  185.68   15.10
   5   3  -5  171.08   16.60
  -5   3   5  151.08   16.20
   5   3   5  146.69   17.60
  -5   3  -5  177.38   12.60
   5  -3  -5  186.58   18.70
  -5  -3   5  178.08   16.30
  -6  -3  -5   90.99   10.80
  -6   3   5  117.29    9.90
  -6   3   5   95.69   12.50
   6   3  -5   92.39   11.80
  -6   3  -5   97.09    8.10
  -6  -3   5  109.19   12.30
   6   3   5   95.19   14.30
   6  -3  -5   94.99   13.30
   0   4   5  244.98   23.20
   0   4  -5  219.58   19.50
   0   4  -5  245.58   19.80
   0  -4   5  235.88   18.40
   0  -4  -5  230.48   19.10
   0  -4  -5  189.28   24.20
   0  -4   5  264.17   20.30
   1   4  -5   90.09   11.00
   1   4  -5  100.89   11.40
  -1  -4  -5   88.39   17.50
  -1   4   5   78.59   12.00
   1  -4   5   80.69    9.70
  -1  -4   5   91.69   10.50
   1  -4  -5  115.29   20.40
  -1   4  -5  107.39   11.00
  -1  -4   5   66.69    9.80
   1  -4  -5   49.80   10.80
   1   4   5   87.19   13.60
  -1   4  -5   90.29   10.20
  -2   4   5  189.98   20.90
  -2  -4  -5  211.08   25.20
   2   4  -5  192.58   17.80
   2   4  -5  158.38   18.20
   2  -4   5  189.98   15.00
  -2  -4   5  178.38   16.90
   2  -4  -5  197.68   22.20
  -2   4  -5  201.78   20.50
  -2   4  -5  206.58   16.40
   2   4   5  209.78   22.40
  -2  -4   5  195.38   18.00
   3   4  -5   37.60    7.80
  -3   4   5   41.10    9.20
   3   4  -5   61.49    9.00
  -3   4   5   49.70   12.20
  -3  -4  -5   36.20   12.20
  -3  -4   5   35.80    7.60
  -3  -4   5   39.40    9.00
   3  -4  -5   47.30    6.40
   3  -4  -5   46.00    7.80
  -3   4  -5   41.20    8.40
   3  -4  -5   52.09   12.10
   3   4   5   36.50   10.50
   4   4  -5   91.19   10.70
  -4   4   5   86.59   11.90
  -4  -4  -5   64.29   15.90
   4   4  -5   83.69   11.20
  -4   4   5   48.40   10.00
  -4  -4  -5   90.79   10.30
  -4   4  -5   65.39    8.20
  -4  -4   5   94.19   12.40
   4   4   5   77.59   14.60
   4  -4  -5  126.79   15.20
  -5   4   5   17.90    6.20
  -5  -4  -5   12.00    4.80
   5   4  -5   19.80    5.40
   5   4  -5    8.70    4.50
  -5   4   5   11.10    4.50
   5  -4  -5   13.90    6.60
  -5  -4   5   11.20    5.10
  -5   4  -5   11.30    4.20
   5   4   5   15.00    7.80
   6   4  -5   21.70    6.80
   6   4  -5   33.30    6.70
  -6   4   5   28.70    8.40
  -6   4   5   28.80    5.10
  -6  -4  -5   30.60    6.50
  -6  -4   5   34.60    7.60
   6  -4  -5   27.60    7.90
   6   4   5   27.70    9.00
  -6   4  -5   23.60    4.90
   0  -5   5  118.09   12.20
   0  -5   5  103.39   10.90
   0   5  -5  103.49   11.70
   0  -5  -5   71.19   17.40
   0   5   5  134.39   18.00
   0   5  -5   91.09   11.30
   0  -5  -5  101.79   11.40
  -1  -5  -5  221.68   26.80
   1   5  -5  214.48   19.00
   1  -5   5  215.78   17.90
   1  -5   5  227.68   18.30
   1   5  -5  211.28   19.10
  -1   5   5  198.08   21.00
  -1  -5   5  211.98   19.40
  -1   5  -5  255.37   18.80
  -1  -5   5  220.18   18.40
   1   5   5  224.68   24.00
  -1   5  -5  234.88   18.70
   1  -5  -5  257.97   26.80
   1  -5  -5  203.08   20.10
  -2  -5  -5   82.59   20.10
   2   5  -5   83.09   10.60
  -2  -5  -5   74.79    9.80
   2   5  -5   51.79    9.70
  -2   5   5   73.29   13.40
   2  -5  -5   88.39   11.40
   2  -5  -5   67.09    8.40
   2   5   5   53.79   12.40
  -2   5  -5   84.39    9.30
   2  -5  -5  103.49   18.50
  -2   5  -5   73.49    8.80
  -2  -5   5   62.79    9.20
  -3  -5  -5  133.69   25.70
   3   5  -5  135.39   14.50
  -3  -5  -5  122.79   13.50
   3   5  -5  139.29   14.00
   3   5   5  140.89   18.60
  -3  -5   5  125.79   13.50
   3  -5  -5  143.09   13.80
  -3   5  -5  137.29   11.80
   3  -5  -5  134.39   11.50
   3  -5  -5  150.08   18.50
  -4  -5  -5   33.50    8.30
  -4  -5  -5   38.90   12.30
   4   5  -5   49.70    8.60
  -4   5   5   22.60    7.00
   4   5  -5   34.20    8.50
  -4   5   5   28.90    8.10
   4  -5  -5   32.90    9.30
   4   5   5   42.20   10.70
  -4  -5   5   36.60    7.70
  -4   5  -5   39.00    6.00
  -5   5   5   60.89    9.10
  -5   5   5   43.20    9.10
  -5  -5  -5   43.30    8.20
   5   5  -5   43.10    8.00
   5   5  -5   46.30    9.60
  -5   5  -5   63.09    6.30
   5  -5  -5   53.59   11.00
  -5  -5   5   48.50    9.20
  -6   5   5   16.30    4.10
  -6   5   5   28.90   11.00
   6   5  -5   20.90    6.30
  -6  -5  -5    9.80    5.00
   6   5  -5    5.90    4.70
  -6  -5   5   20.30    6.10
  -6   5  -5   12.50    2.90
   6   5   5   10.60   11.30
   0   6   5   35.80   10.70
   0  -6   5   40.50    7.30
   0  -6  -5   34.50   11.50
   0   6  -5   40.90    8.30
   0  -6  -5   39.30    8.10
   0  -6  -5   40.60    7.60
   0   6  -5   34.50    7.60
   1   6  -5  215.68   18.80
  -1  -6  -5  221.48   27.40
  -1  -6  -5  205.78   18.50
  -1   6   5  204.68   21.30
   1  -6   5  210.98   16.50
   1   6  -5  198.58   18.40
  -1   6  -5  215.88   17.90
  -1   6  -5  201.18   17.50
  -1  -6   5  223.98   18.30
   1  -6  -5  209.28   25.40
   1  -6  -5  229.78   19.80
   1  -6  -5  209.88   17.60
   1   6   5  221.28   24.40
  -2  -6  -5   37.00    8.10
  -2  -6  -5   43.80   15.40
  -2   6   5   53.09   11.70
   2   6  -5   34.60    8.00
   2   6  -5   36.60    8.30
   2  -6  -5   44.90    8.90
  -2   6  -5   40.20    7.40
   2   6   5   28.40   10.90
  -2   6  -5   37.10    7.00
   2  -6  -5   39.30    7.00
   2  -6  -5   43.20   13.20
  -2  -6   5   34.40    7.40
  -3  -6  -5  102.59   22.00
  -3   6   5  117.09   22.00
  -3  -6  -5  154.38   15.80
   3   6  -5  145.79   14.70
   3   6  -5  117.99   13.70
  -3   6  -5  121.39   15.40
   3  -6  -5  144.09   18.50
  -3   6  -5  135.69   12.80
   3   6   5  159.08   19.90
   3  -6  -5  120.99   10.90
  -3  -6   5  132.69   13.70
  -3   6  -5  123.39   11.30
   4   6  -5   18.40    6.40
  -4  -6  -5   -9.00    7.10
  -4  -6  -5   14.90    5.30
  -4   6   5    8.00    7.90
   4  -6  -5   20.80    8.30
  -4   6  -5   13.30    3.90
  -4  -6   5   13.40    5.10
  -5  -6  -5   53.59    9.40
  -5   6   5   72.19    9.80
   5   6  -5   40.30    8.60
   5   6  -5   58.19   11.00
   5   6   5   50.29   13.10
  -5  -6   5   50.09    9.60
   5  -6  -5   53.39   11.40
  -5   6  -5   54.59    6.00
   6   6  -5   10.70    6.30
   0   7  -5  184.68   16.50
   0   7   5  168.88   20.90
   0  -7  -5  184.18   16.20
   0  -7  -5  163.28   16.20
   0   7  -5  203.08   17.40
   0  -7   5  186.38   15.50
   0  -7  -5  146.89   22.80
   1   7  -5  277.37   23.80
   1  -7   5  329.47   21.70
  -1  -7  -5  300.97   24.20
  -1   7   5  309.77   28.10
  -1  -7  -5  270.97   32.30
   1   7  -5  294.57   24.10
  -1   7  -5  316.97   23.50
  -1  -7   5  329.87   23.90
   1  -7  -5  278.67   31.60
   1  -7  -5  321.67   23.30
  -1   7  -5  309.67   23.40
   1   7   5  332.07   30.80
   1  -7  -5  305.97   24.50
  -2  -7  -5  203.68   18.30
  -2  -7  -5  237.98   29.00
   2   7  -5  201.98   18.40
  -2   7   5  174.98   19.80
   2  -7  -5  207.18   24.80
  -2   7  -5  185.18   16.70
  -2   7  -5  194.98   16.30
   2  -7  -5  214.38   16.20
   3   7  -5  203.48   18.40
  -3   7   5  149.79   19.10
  -3  -7  -5  194.88   17.80
   3   7  -5  193.98   20.40
  -3  -7  -5  198.58   27.50
   3  -7  -5  187.38   22.50
  -3   7  -5  191.88   15.40
  -3  -7   5  207.18   17.90
   3  -7  -5  203.68   14.70
  -3   7  -5  206.78   15.70
  -3   7  -5  195.78   20.40
  -4   7   5   85.19   14.30
  -4  -7  -5   94.89   11.70
   4   7  -5   87.09   11.60
   4   7  -5   60.29   10.80
  -4  -7   5   70.69   10.50
   4   7   5   82.29   16.90
   4  -7  -5   83.79   15.10
  -4   7  -5   80.49    8.40
   5   7  -5   77.09   11.50
   5   7  -5   85.09   12.00
  -5  -7  -5   62.29   10.60
   5  -7  -5   79.69   13.60
  -5   7  -5   94.49    8.20
  -5  -7   5   93.49   12.00
   0  -8  -5    0.10    8.50
   0  -8  -5    5.80    4.40
   0   8  -5   10.80    5.10
   0  -8  -5   11.20    5.10
   0  -8   5    7.20    3.80
   0   8   5   10.70    8.00
   0   8  -5    8.60    4.90
   1   8  -5  123.29   13.50
   1   8  -5  116.39   12.90
  -1  -8  -5  107.19   24.80
  -1  -8  -5   97.69   12.30
  -1   8   5  133.89   17.60
   1  -8   5  107.09   10.50
   1  -8  -5  107.19   21.50
  -1   8  -5   95.89   12.40
   1   8   5  115.59   17.90
   1  -8  -5  111.79   11.80
  -1   8  -5  119.59   21.80
  -1   8  -5  136.29   12.70
   1  -8  -5  125.59   13.70
  -1  -8   5  128.89   12.90
  -2  -8  -5    6.40    7.60
   2   8  -5    5.60    3.60
  -2   8   5    6.10    6.00
  -2  -8  -5    7.30    4.30
   2  -8  -5    2.10    2.70
  -2   8  -5    2.10    3.90
  -2   8  -5   -0.90    7.50
  -2   8  -5   10.40    4.40
  -2  -8   5    0.80    3.40
   2  -8  -5   -0.80    7.50
   3   8  -5   91.89   12.30
   3   8  -5   69.79   10.60
  -3   8   5   73.79   14.50
  -3  -8  -5   55.09   15.40
  -3  -8  -5   77.29   10.90
  -3   8  -5   84.99    9.70
  -3  -8   5   82.59   10.50
   3  -8  -5   68.39    8.00
   3   8   5  102.79   19.80
   3  -8  -5   79.39   16.90
  -3   8  -5   76.29    8.70
  -3   8  -5   73.49   14.20
   4   8  -5    1.80    3.70
  -4  -8  -5   -4.40    3.90
  -4   8   5   -5.20    7.70
   4  -8  -5    7.20    7.70
  -4   8  -5    7.50    4.10
  -4  -8   5    4.70    3.80
  -5  -8  -5   35.80    8.40
   5   8  -5   33.60    7.90
  -5   8  -5   27.70    5.80
  -5  -8   5   31.10    7.50
   5  -8  -5   33.00   10.30
   0   9  -5  166.78   16.70
   0   9   5  181.18   31.00
   0   9  -5  170.88   16.10
   0   9  -5  166.98   26.20
   0  -9  -5  165.48   15.80
   0  -9  -5  157.88   29.00
   0  -9   5  178.68   15.00
   1   9  -5    1.60   11.00
   1  -9   5    5.50    3.00
  -1   9   5   -0.50    6.80
  -1  -9  -5    5.40    3.90
  -1  -9  -5    3.40    8.10
   1   9  -5    7.10    5.50
   1   9  -5    8.50    4.40
   1  -9  -5    2.20    3.50
   1  -9  -5    3.50    4.80
  -1   9  -5  -18.00    8.10
  -1   9  -5    8.10    4.50
  -1  -9   5    3.90    3.60
   1  -9  -5    9.30    9.70
   1   9   5    6.80    7.50
  -1   9  -5    3.50    3.20
  -2  -9  -5  126.99   25.90
  -2   9   5  139.49   17.70
   2   9  -5  105.59   14.30
   2   9  -5  126.19   25.50
  -2  -9  -5  117.09   13.20
   2   9  -5  110.79   13.20
  -2   9  -5  136.89   13.50
   2  -9  -5  101.79   10.90
   2  -9  -5  111.49   15.00
  -2   9  -5  136.19   19.80
  -2  -9   5  121.39   13.30
   2   9   5  137.59   20.80
  -2   9  -5  122.59   12.20
   2  -9  -5  140.79   24.70
  -3  -9  -5    1.10    4.00
  -3   9   5   -4.30    6.40
   3   9  -5   -0.20    3.80
  -3   9  -5    4.10    3.30
   3  -9  -5    4.50    3.20
   3  -9  -5    2.50    8.30
  -3   9  -5    6.20    4.50
  -3  -9   5    3.10    4.00
   4   9  -5   81.39   11.60
  -4   9   5   56.69   13.70
  -4  -9  -5   94.79   11.80
  -4   9  -5   98.29   10.30
  -4  -9   5   60.49   10.80
   4  -9  -5   82.39   15.20
   0  10   5   -1.10    7.50
   0  10  -5    3.00    5.40
   0 -10  -5   -1.80    8.00
   0  10  -5   -3.70   10.20
   0 -10  -5    2.00    3.80
   0  10  -5    2.60    3.30
   0 -10  -5   -1.60    4.10
   1 -10   5   85.99    9.50
  -1  10   5   89.69   18.30
   1  10  -5   83.89   33.00
  -1 -10  -5   90.89   20.10
   1  10  -5  102.59   12.10
  -1 -10  -5   92.09   11.80
  -1 -10   5   75.49   10.80
  -1  10  -5   82.09   10.80
  -1  10  -5   70.19   18.70
   1 -10  -5   94.99   21.70
   1 -10  -5  106.19   11.10
  -1  10  -5  102.19   12.60
  -2 -10  -5    1.00    4.20
  -2  10   5   -3.70    7.40
   2  10  -5    6.70    4.80
   2 -10  -5    0.50    6.20
  -2 -10   5   -3.50    3.80
  -2  10  -5    2.20    6.60
  -2  10  -5    4.70    9.90
   2 -10  -5   -3.60    2.90
   2 -10  -5   -7.80    8.50
  -3 -10  -5   64.69   10.60
   3  10  -5   57.59   10.70
   3 -10  -5   53.39   16.40
  -3  10  -5   62.69   13.70
   3 -10  -5   66.39    6.60
  -3  10  -5   59.59    8.40
   3 -10  -5   63.99    6.90
  -3  10  -5   73.79   10.30
   0  11  -5    3.70    3.90
   0 -11   5    0.90    3.90
   0 -11  -5   10.30    6.30
   0 -11  -5    3.90    4.30
   0 -11  -5    6.00   11.00
   1 -11   5   10.20    4.20
   1  11  -5    6.90    5.00
  -1 -11  -5    8.00    5.00
  -1 -11   5    8.00    5.30
  -1  11  -5    5.40    4.40
   1 -11  -5    8.40    4.70
   1 -11  -5   -4.40   10.20
  -1  11  -5   15.20   13.30
  -2 -11  -5    0.70    4.50
   2  11  -5    0.90    4.10
   2 -11  -5    5.70    3.70
   2 -11  -5   -2.00   10.30
  -2  11  -5    0.90    3.70
  -2 -11   5   -1.40    4.60
   2 -11  -5   16.60    7.40
   0   0   6  644.14   45.20
   0   0  -6  683.03   51.19
   0   0   6  677.93   49.30
   0   0  -6  694.43   47.10
   1   0  -6   42.00    9.90
  -1   0  -6   22.90    8.50
   1   0  -6   74.59   15.70
  -1   0  -6   38.00    9.30
  -1   0   6   30.50    8.30
  -1   0   6   50.89   11.00
  -2   0  -6  747.83   52.29
  -2   0   6  576.84   47.80
  -2   0   6  705.83   46.30
   2   0  -6  769.92   47.10
  -2   0  -6  738.23   44.50
   3   0  -6   23.50    8.40
  -3   0  -6   55.79   11.70
  -3   0   6   38.00    7.70
   3   0  -6   54.59    8.80
   3   0   6   38.40    9.00
  -3   0   6   50.59   10.40
   4   0  -6  202.08   15.70
  -4   0   6  211.28   18.10
  -4   0   6  187.18   16.70
   4   0   6  160.78   17.20
  -4   0  -6  219.68   21.70
  -5   0  -6   31.80    9.10
  -5   0   6   11.10    4.70
   5   0  -6   18.70    4.40
   5   0   6    8.80    5.50
   5   0  -6   13.80    6.00
  -5   0   6   14.00    4.60
   6   0  -6   98.89   14.50
  -6   0   6   84.59   10.50
  -6   0   6   82.69   10.80
   0  -1  -6   20.60    8.70
   0   1  -6   53.59   10.40
   0   1  -6   28.70    9.60
   0  -1   6   47.80    9.90
   0   1   6   40.10   11.90
   0   1   6   50.49    9.60
   0  -1  -6   49.10   11.40
   1   1  -6   10.60    5.50
  -1   1   6    6.60    5.20
  -1  -1  -6    0.90    3.30
  -1  -1  -6    3.30    4.90
   1   1  -6    5.00    4.40
   1  -1   6    5.10    4.90
  -1   1   6   12.70    7.20
   1  -1  -6   -1.40    3.40
  -1   1  -6    6.30    5.70
  -1  -1   6    6.20    5.30
  -1  -1   6    5.70    4.00
   1   1   6    4.10    4.60
  -1   1  -6    7.20    5.10
   1  -1  -6    7.10    6.20
  -2  -1  -6   35.70   11.10
  -2   1   6   26.50    8.40
   2   1  -6   28.40    8.40
  -2  -1  -6   50.59    8.20
   2   1  -6   37.30    8.10
  -2   1   6   35.30    9.00
   2  -1   6   58.79   11.60
   2   1   6   47.10   10.30
   2  -1  -6   40.80   12.10
   2  -1  -6   41.00    8.60
  -2  -1   6   38.40    7.70
  -2   1  -6   40.10    8.10
  -2  -1   6   25.30    7.30
   3   1  -6    7.40    5.20
  -3   1   6    7.30    4.00
   3   1  -6    3.30    3.30
   3  -1   6   -2.90    4.40
  -3  -1  -6   12.50    8.30
  -3   1   6   -1.40    3.70
  -3   1  -6    4.90    2.90
   3  -1  -6    7.40    5.50
   3  -1  -6    2.70    3.10
  -3   1  -6   12.70    5.70
   3   1   6    5.00    4.10
  -3  -1   6    5.60    3.50
   4   1  -6    8.40    5.30
   4   1  -6    8.90    3.90
  -4   1   6    5.50    4.00
  -4  -1  -6   10.10    6.70
   4  -1   6    7.20    4.70
  -4   1   6   14.70    5.90
  -4  -1   6   13.90    4.90
   4  -1  -6   15.80    7.50
   4  -1  -6    8.00    3.10
  -4   1  -6   10.10    6.90
  -4  -1   6   10.40    5.30
   4   1   6    7.90    4.50
   5   1  -6    2.30    4.80
  -5   1   6   -2.00    3.30
  -5   1   6    0.40    3.30
  -5  -1  -6    2.10    6.10
   5   1  -6   -0.70    3.00
   5  -1  -6    0.70    4.90
   5  -1  -6    2.20    2.20
   5   1   6    6.80    4.40
  -5  -1   6    1.60    4.10
   6   1  -6    4.30    6.00
  -6   1   6   -0.60    4.00
  -6   1   6   -1.00    3.80
  -6  -1  -6   -1.50    3.30
   6  -1  -6    3.40    6.10
   6   1   6    3.90    5.30
  -6  -1   6    5.20    3.70
   0  -2   6    3.00    3.70
   0  -2  -6    1.60    4.10
   0   2   6   -0.80    3.20
   0   2  -6   -1.50    2.80
   0  -2  -6    0.40    4.30
   0  -2   6    5.30    4.00
   1  -2   6  938.41   68.29
   1  -2   6 1108.89   67.49
  -1  -2  -6 1105.49   66.69
   1   2  -6 1161.98   69.09
  -1  -2  -6 1212.18   77.89
  -1   2   6 1132.79   69.69
   1   2  -6 1108.39   69.99
   1  -2  -6 1241.88   71.49
   1   2   6 1107.59   71.19
  -1  -2   6 1040.30   66.69
  -1   2  -6  984.70   67.89
  -1  -2   6 1158.98   70.49
  -2  -2  -6   -2.20    4.70
  -2   2   6    0.90    3.80
   2  -2   6   -0.30    3.20
   2   2  -6    1.60    3.50
   2   2  -6    1.70    3.60
  -2   2   6   -5.60    3.80
  -2   2  -6    0.10    3.90
   2  -2  -6    3.20    5.20
  -2  -2   6    0.90    3.20
  -2   2  -6   -4.00    3.70
   2   2   6    0.20    3.00
  -2  -2   6    0.40    2.60
   2  -2  -6    1.20    3.50
  -3  -2  -6  632.74   48.60
   3   2  -6  592.94   41.90
   3  -2  -6  583.84   46.40
  -3  -2   6  659.93   42.50
   3  -2  -6  615.34   39.00
  -3  -2   6  633.44   40.60
   3   2   6  626.14   42.90
  -3   2  -6  521.75   38.50
   4   2  -6    2.50    3.20
   4  -2   6    0.00    2.40
   4   2  -6   -1.10    3.50
  -4  -2  -6    3.40    6.30
  -4   2   6   -1.40    3.70
   4   2   6    0.30    4.20
   4  -2  -6   -1.60    2.30
  -4   2  -6   -4.50    3.80
  -4  -2   6    1.00    3.00
   4  -2  -6   -0.40    4.80
  -4   2  -6    2.90    2.70
  -4  -2   6    3.40    3.50
  -5  -2  -6  229.78   25.60
   5   2  -6  251.27   18.60
  -5   2   6  234.78   19.00
  -5   2   6  222.58   19.40
   5   2  -6  240.58   21.10
   5  -2  -6  170.28   21.30
  -5   2  -6  228.18   16.20
  -5  -2   6  272.47   20.40
   5   2   6  267.87   21.40
  -5  -2   6  230.18   19.90
  -6  -2  -6    3.30    3.70
  -6   2   6    2.00    3.90
   6   2  -6    6.40    5.40
  -6   2   6    1.80    4.20
   6   2  -6    2.90    3.50
   6   2   6   -6.50    5.10
  -6   2  -6   -0.80    2.90
  -6  -2   6    2.50    4.00
   6  -2  -6   11.60    6.80
   0  -3  -6    3.60    4.20
   0  -3  -6    0.20    4.50
   0   3   6    8.70    5.70
   0  -3   6    8.30    4.70
   0   3  -6    3.30    3.90
   0  -3   6    2.80    3.40
   0   3  -6    3.80    3.70
   1   3  -6  328.87   25.90
  -1  -3  -6  293.17   23.60
  -1  -3  -6  362.36   33.60
   1   3  -6  330.97   26.40
   1  -3   6  366.66   25.20
  -1   3   6  277.47   28.00
   1  -3   6  355.46   26.00
  -1  -3   6  330.27   24.60
  -1   3  -6  334.97   27.00
   1  -3  -6  346.07   33.00
  -1  -3   6  337.77   26.50
   1  -3  -6  368.56   29.00
  -1   3  -6  257.17   24.30
   2   3  -6    2.70    4.20
  -2  -3  -6    4.40    6.00
  -2   3   6   11.00    6.70
  -2   3   6   13.10    6.00
   2   3  -6    4.90    3.20
   2  -3   6    6.80    3.50
  -2   3  -6    3.90    5.10
  -2  -3   6    6.80    4.10
   2   3   6    8.90    5.10
   2  -3  -6    6.40    5.70
   2  -3  -6    1.50    4.30
  -2   3  -6    4.90    4.60
  -2  -3   6    9.40    4.10
  -3  -3  -6  187.38   24.20
  -3   3   6  180.08   18.90
   3   3  -6  178.48   16.60
   3  -3   6  188.78   14.50
   3   3  -6  181.98   17.80
  -3   3   6  169.48   19.50
  -3  -3   6  181.48   17.70
  -3   3  -6  222.48   17.50
   3  -3  -6  199.58   16.00
   3  -3  -6  133.89   19.90
   3   3   6  200.68   20.70
  -3  -3   6  184.18   17.10
   4   3  -6    2.10    3.70
  -4   3   6   -8.20    4.00
  -4  -3  -6   -4.40    6.10
   4   3  -6    2.10    3.30
  -4   3  -6    3.50    4.00
  -4  -3   6   -3.20    3.30
   4  -3  -6    0.20    5.40
   4  -3  -6    5.90    2.70
   4   3   6    5.60    5.30
  -4  -3   6    0.00    3.00
   5   3  -6   75.19   10.70
   5   3  -6   72.99    9.20
  -5  -3  -6   77.59   16.90
  -5  -3  -6   77.19    9.60
  -5   3   6   80.19   10.10
  -5   3  -6   48.00    7.80
  -5  -3   6   63.39   10.10
   5   3   6   66.79   11.90
   5  -3  -6   69.19   13.50
   6   3  -6    4.90    4.20
  -6  -3  -6   -2.40    3.70
  -6   3   6   -3.70    5.00
  -6   3   6    0.20    3.70
   6   3  -6    3.10    4.10
   6   3   6   -3.30    6.30
  -6  -3   6    1.40    4.40
   6  -3  -6    0.60    5.90
   0  -4  -6  108.69   12.50
   0  -4   6   94.59   11.00
   0   4  -6  118.89   13.20
   0   4  -6  105.59   12.40
   0   4   6  105.89   14.70
   0  -4  -6  124.09   22.60
   0  -4   6  111.39   12.60
  -1   4   6   -4.10    3.80
   1   4  -6   -0.80    2.10
   1  -4   6    0.60    2.60
   1   4  -6    1.70    3.20
   1  -4   6    4.90    3.70
  -1  -4  -6    7.40    6.10
  -1   4  -6    1.50    2.80
   1  -4  -6   -0.20    5.00
  -1  -4   6   -1.70    2.30
   1  -4  -6    1.20    4.70
  -1  -4   6   -3.20    2.80
   1   4   6    2.60    4.00
  -1   4  -6    3.20    4.00
   2   4  -6   25.50    6.80
   2  -4   6   26.40    6.00
   2   4  -6   30.00    7.50
  -2   4   6   11.30    7.30
  -2   4   6   22.90    7.20
  -2  -4  -6   12.30    8.20
  -2  -4   6   20.00    6.30
   2  -4  -6   27.50   10.40
  -2  -4   6   30.70    7.00
   2  -4  -6   37.60    9.10
  -2   4  -6   32.00    8.60
  -2   4  -6   30.50    7.20
   2   4   6   40.20   10.10
   3   4  -6    2.10    2.90
  -3   4   6   -2.40    3.70
   3   4  -6   -1.50    3.70
   3  -4   6   -3.00    1.90
  -3  -4  -6   -2.50    6.40
   3  -4  -6    0.80    5.40
  -3  -4   6   -4.90    3.50
   3   4   6   -0.50    4.80
  -3  -4   6   -0.10    3.10
   3  -4  -6    3.10    3.00
  -3   4  -6   -4.20    3.20
   4   4  -6   42.30    8.20
  -4  -4  -6   28.30   10.70
   4   4  -6   37.20    9.10
  -4   4   6   35.30    8.20
   4  -4  -6   33.10    4.50
   4  -4  -6   48.90   11.90
   4   4   6   23.40    8.20
  -4   4  -6   48.80    8.10
   4  -4  -6   35.40    4.60
  -4  -4   6   42.90    8.60
   5   4  -6   -2.40    3.20
   5   4  -6   -5.10    3.90
  -5   4   6   -2.60    4.30
  -5  -4  -6   -2.00    3.30
   5  -4  -6  -14.90    5.90
  -5  -4   6    3.20    3.80
   5   4   6    8.10    6.20
  -5   4  -6    3.70    4.00
   6   4  -6   13.00    5.20
  -6   4   6   12.60    6.60
   6   4  -6    3.60    4.50
  -6  -4  -6    3.40    4.80
  -6   4   6    8.40    4.30
  -6  -4   6    5.30    5.00
   6  -4  -6    2.80    6.30
   0  -5  -6   10.20    7.70
   0  -5  -6    4.00    4.10
   0  -5   6    1.90    3.10
   0   5  -6    3.90    4.30
   0   5  -6    7.60    4.00
   0   5   6    8.30    5.40
   1   5  -6  110.39   12.40
  -1  -5  -6   65.49   16.20
  -1   5   6  101.89   14.50
   1  -5   6   95.59   11.10
   1  -5   6   66.39   10.10
   1   5  -6   93.49   11.70
  -1  -5   6   95.09   12.10
  -1   5  -6  101.09   11.70
   1   5   6  129.49   16.10
   1  -5  -6  103.79   20.50
  -1  -5   6   99.99   11.20
  -1   5  -6   94.19   11.20
  -2   5   6    7.60    6.10
   2  -5   6    4.50    3.30
  -2  -5  -6   11.10    9.00
   2   5  -6    5.60    3.00
   2   5  -6    5.80    4.50
   2  -5  -6    2.80    6.00
   2   5   6    4.70    6.30
  -2  -5   6    4.30    3.40
  -2   5  -6    5.10    3.70
  -2   5  -6    6.10    4.10
  -2  -5   6    7.20    4.00
   2  -5  -6    7.60    5.60
   3   5  -6   37.70   10.10
  -3  -5  -6   63.49    9.40
  -3   5   6   52.69   12.60
   3   5  -6   64.89   10.70
  -3  -5  -6   52.99   16.50
  -3   5  -6   53.69   10.50
   3  -5  -6   75.09    7.70
   3  -5  -6   60.09    8.60
   3  -5  -6   57.29   14.10
  -3   5  -6   63.69    8.80
   3   5   6   59.89   13.20
  -3  -5   6   38.60   13.20
   4   5  -6    5.90    4.90
  -4   5   6    1.40    4.80
  -4   5   6    0.30    5.50
  -4  -5  -6    6.50    4.20
  -4  -5  -6    6.40    7.70
   4   5  -6    5.90    4.30
   4   5   6    0.60    5.90
  -4   5  -6    6.10    3.70
  -4  -5   6    2.20    3.60
   4  -5  -6    3.10    1.60
   4  -5  -6   -7.70    6.40
  -5   5   6   24.00    7.20
   5   5  -6   25.80    7.30
  -5  -5  -6   25.00    6.20
   5  -5  -6   16.80    7.90
  -5   5  -6   22.60    5.40
  -5  -5   6   26.50    7.00
  -6   5   6    4.90    5.80
   6   5  -6    7.10    9.50
   6   5  -6   -4.70    3.90
  -6  -5  -6   -3.40    4.30
  -6   5   6   -0.90    4.50
  -6   5  -6   11.80    3.70
  -6  -5   6    1.10    5.40
   6  -5  -6   -4.00    6.50
   6   5   6   -7.70    8.40
   0  -6  -6  252.77   20.40
   0  -6   6  226.58   18.60
   0   6  -6  241.88   20.20
   0  -6  -6  284.27   30.20
   0   6  -6  219.38   19.80
   0  -6  -6  242.68   19.80
   0   6   6  202.68   23.30
   1  -6   6  837.72   54.59
   1   6  -6  948.71   57.99
  -1   6   6  887.11   60.89
   1   6  -6  954.00   57.59
  -1  -6  -6  872.81   68.19
  -1  -6  -6  923.31   57.29
   1  -6  -6  986.60   68.39
  -1   6  -6  840.12   55.49
  -1   6  -6  932.81   56.59
   1  -6  -6  773.22   57.29
   1  -6  -6  910.51   55.99
   1   6   6  959.90   63.99
  -1  -6   6  931.91   56.19
   2   6  -6  211.38   20.30
  -2   6   6  236.08   23.30
  -2  -6  -6  244.68   21.30
  -2  -6  -6  200.38   27.40
   2   6   6  258.47   26.10
   2  -6  -6  215.78   26.10
  -2   6  -6  258.07   20.10
   2  -6  -6  228.68   18.50
  -2  -6   6  235.88   20.10
   2  -6  -6  273.17   22.00
  -2   6  -6  267.37   19.70
  -3  -6  -6  514.35   48.50
   3   6  -6  556.24   39.00
  -3  -6  -6  571.74   38.40
   3  -6  -6  594.14   44.90
  -3  -6   6  553.34   37.90
   3  -6  -6  561.94   34.40
  -3   6  -6  610.34   36.20
   3   6   6  512.65   49.40
   3  -6  -6  517.05   35.30
   4   6  -6   85.59   12.20
  -4   6   6   99.49   14.70
   4   6  -6   96.59   13.90
  -4  -6  -6   92.29   20.40
  -4  -6  -6   92.39   11.70
   4  -6  -6  104.49   16.00
  -4  -6   6  108.19   12.30
  -4   6  -6   94.09    9.80
   4   6   6   60.89   14.70
   5   6  -6  248.38   20.70
  -5  -6  -6  230.08   20.20
   5   6  -6  222.78   21.00
   5  -6  -6  247.78   24.00
   5   6   6  248.38   25.50
  -5  -6   6  258.57   21.00
  -5   6  -6  239.08   16.70
   0  -7  -6   27.30    7.10
   0  -7  -6   23.30    6.60
   0  -7   6   31.90    6.60
   0  -7  -6   11.80   10.30
   0   7   6   19.10    8.40
   0   7  -6   23.00    6.40
   0   7  -6   22.20    6.00
   1   7  -6   65.89   12.00
  -1  -7  -6   52.19   14.20
   1   7  -6   66.09   10.80
  -1   7   6   59.39   12.90
   1  -7   6   50.19    8.40
  -1  -7  -6   38.50   12.50
  -1   7  -6   61.69   10.00
   1  -7  -6   69.49   17.30
  -1  -7   6   67.19    9.20
  -1   7  -6   67.19    9.10
   1  -7  -6   65.89   10.30
   1  -7  -6   59.89   11.30
   2   7  -6   14.70    5.90
  -2  -7  -6   18.60    9.40
  -2  -7  -6   18.50    5.90
  -2   7   6   25.40    8.30
  -2  -7   6   26.20    6.60
   2  -7  -6   19.00    4.80
  -2   7  -6   25.30    6.10
  -2   7  -6   34.30    7.10
   2  -7  -6   16.60   10.40
   2  -7  -6   22.60    6.90
  -3  -7  -6   32.40    7.50
   3   7  -6   28.70    6.80
  -3  -7  -6   53.29   16.90
   3   7  -6   40.00    9.40
  -3   7   6   31.00   10.80
  -3   7  -6   26.50    9.70
   3   7   6   35.20   13.10
   3  -7  -6   31.50   10.10
   3  -7  -6   25.50    4.90
  -3   7  -6   37.30    7.00
  -3  -7   6   44.40    8.90
   3  -7  -6   22.70    5.70
  -3   7  -6   35.60    7.10
  -4  -7  -6   -4.40    9.50
  -4  -7  -6   10.40    5.30
  -4   7   6   11.30    7.10
   4   7  -6   12.80    5.40
   4   7  -6   15.80    6.40
  -4  -7   6   10.80    5.10
   4   7   6   17.00    9.30
  -4   7  -6    9.20    5.60
   5   7  -6   17.40    6.60
  -5  -7  -6   18.10    6.90
  -5   7   6    7.60    6.30
  -5   7  -6   21.10    4.60
   5  -7  -6   14.80   10.00
  -5  -7   6   20.70    6.50
   0   8   6   44.40   12.80
   0  -8  -6   41.80    8.50
   0  -8  -6   40.70    8.10
   0   8  -6   43.30    8.60
   0  -8  -6   72.19   19.40
   0  -8   6   45.20    7.70
   1   8  -6   13.70    6.00
  -1   8   6   20.20    9.00
   1  -8   6   22.40    5.70
   1   8  -6   14.90    5.30
  -1  -8  -6   13.00    5.30
  -1  -8  -6    8.90    9.00
   1   8   6   26.90   10.60
   1  -8  -6   41.40   13.60
  -1   8  -6   18.80    6.90
  -1  -8   6   14.40    5.00
   1  -8  -6   16.80    6.80
  -1   8  -6   15.70    5.40
   1  -8  -6    8.80    4.30
   2   8  -6   23.20    8.40
  -2  -8  -6   24.50    6.90
   2   8  -6   26.60    7.00
  -2  -8  -6   31.50   12.00
  -2   8   6   18.50    8.50
   2  -8  -6   22.50   10.40
  -2   8  -6   28.60    6.20
   2  -8  -6   29.90    5.60
  -2   8  -6   19.20    9.70
  -2  -8   6   25.50    6.40
   2   8   6   16.50    7.50
  -2   8  -6   12.40    5.70
   2  -8  -6   24.40    8.30
  -3  -8  -6   12.20   10.80
  -3  -8  -6   10.40    4.80
   3   8  -6   11.00    4.90
  -3   8   6    8.20    7.50
   3   8  -6   13.70    6.60
  -3   8  -6   14.20    9.00
  -3  -8   6   13.50    5.30
   3   8   6    4.10    8.80
  -3   8  -6   13.90    4.70
   3  -8  -6    3.70    4.10
  -3   8  -6   18.80    5.50
   3  -8  -6   10.60    3.60
  -4   8   6   26.20    9.90
  -4  -8  -6    6.10    4.70
   4  -8  -6   17.80    9.30
  -4   8  -6   20.10    5.20
  -4  -8   6   11.20    5.40
   0   9  -6   40.00    8.40
   0   9   6   35.70   12.90
   0  -9  -6   21.20   13.00
   0  -9   6   31.40    6.30
   0  -9  -6   20.50    6.00
   0   9  -6   36.50    7.80
   0  -9  -6   25.30    7.50
  -1   9   6    3.70    7.10
   1   9  -6    4.70    5.70
   1  -9   6   10.60    4.20
   1   9  -6    9.60    4.80
  -1  -9  -6    8.00    5.20
  -1  -9  -6   11.00   10.70
   1  -9  -6    6.40    3.80
   1  -9  -6   10.80    6.60
  -1   9  -6   11.40    4.70
  -1   9  -6    3.80    5.30
  -1  -9   6   10.20    5.00
   1  -9  -6    8.00    9.50
  -1   9  -6    6.10   10.20
   1   9   6    2.20    7.70
   2   9  -6   27.10    7.30
  -2  -9  -6   15.40   10.90
  -2  -9  -6   24.60    6.50
   2  -9  -6   22.10   11.30
   2  -9  -6   12.30    7.00
  -2   9  -6   27.40    6.30
   2  -9  -6   25.60    5.90
  -2   9  -6   48.80   14.20
  -2  -9   6   24.70    6.60
  -2   9  -6   27.10    7.40
  -3   9   6    9.30    7.30
   3   9  -6    9.50    4.50
  -3  -9  -6    1.90    9.10
  -3  -9  -6    7.50    5.00
  -3   9  -6    5.10    8.60
   3  -9  -6   -6.50    7.90
   3  -9  -6   -0.70    4.10
   3  -9  -6    7.40    3.50
  -3   9  -6    3.70    3.80
  -3   9  -6    0.60    4.60
  -3  -9   6    9.00    5.30
  -4   9   6    0.10    9.40
   4   9  -6    8.00    5.00
  -4  -9  -6   16.90    6.30
  -4   9  -6   21.70    5.50
  -4  -9   6   15.50    5.60
   4  -9  -6   24.60   12.40
   0 -10   6  152.08   13.90
   0 -10  -6  166.38   25.50
   0  10  -6  114.19   23.60
   0 -10  -6  137.29   14.60
   0 -10  -6  155.08   15.50
   0  10  -6  145.29   14.80
   1  10  -6  246.78   20.60
  -1 -10  -6  219.38   19.90
  -1 -10  -6  219.78   30.60
   1 -10   6  225.68   17.60
   1 -10  -6  234.58   18.80
  -1  10  -6  268.87   20.30
   1 -10  -6  191.48   20.90
  -1  10  -6  214.78   20.20
  -1  10  -6  248.78   35.10
   1 -10  -6  232.88   30.90
  -1 -10   6  256.67   19.70
  -2 -10  -6  102.79   12.80
  -2  10   6   98.29   16.00
   2  10  -6   88.49   12.20
  -2  10  -6  110.99   11.90
  -2  10  -6   89.49   12.60
   2 -10  -6   53.59   17.00
  -2 -10   6  104.19   12.60
   2 -10  -6  110.09   14.80
  -2  10  -6   98.29   19.60
   2 -10  -6   88.09   10.00
  -3 -10  -6  162.88   16.60
   3  10  -6  143.29   16.00
  -3  10   6  182.38   21.10
   3 -10  -6  183.68   25.40
  -3 -10   6  152.88   16.00
  -3  10  -6  147.79   15.80
  -3  10  -6  140.19   21.50
   3 -10  -6  157.18   11.80
  -3  10  -6  160.58   14.30
   0  11  -6   45.00    8.90
   0 -11  -6   74.79   10.80
   0 -11  -6   36.50   25.50
   0 -11   6   60.69    9.20
  -1 -11  -6    4.40   10.50
   1  11  -6   18.30    7.40
   1 -11   6   23.70    5.90
  -1  11  -6   18.80    6.40
   1 -11  -6   17.80   12.00
   1 -11  -6   18.40    8.80
  -1 -11   6   13.60    5.90
   1 -11  -6   19.50    5.80
   0   0   7  223.38   20.30
   0   0  -7  238.28   25.30
   0   0   7  219.68   22.80
   0   0  -7  234.88   22.00
   1   0  -7  921.31   61.49
  -1   0   7  929.81   61.59
  -1   0  -7  978.60   61.99
  -2   0  -7  112.79   20.20
   2   0  -7   75.09   15.70
   2   0   7  121.39   15.80
   2   0  -7  127.39   14.30
  -2   0  -7  115.89   12.80
  -2   0   7  113.39   13.90
  -3   0  -7 1114.59   68.89
  -3   0  -7  985.80   58.49
   3   0  -7  990.40   63.39
  -3   0   7  885.41   62.89
  -3   0   7  938.01   60.69
   4   0   7   50.19   10.40
  -4   0  -7   74.79   14.30
  -4   0   7   48.60    9.20
   4   0  -7   61.29   10.60
  -4   0   7   74.29   10.80
  -5   0  -7  429.06   33.50
   5   0  -7  305.27   31.30
  -5   0   7  423.56   29.90
  -5   0   7  398.86   28.70
   5   0   7  419.36   29.60
   5   0  -7  412.36   26.30
  -6   0   7   21.50    6.10
  -6   0   7   11.90    6.30
   6   0  -7    6.60    7.30
   0  -1   7  221.38   19.50
   0   1  -7  180.38   21.50
   0   1   7  182.88   17.70
   0  -1  -7  183.78   19.60
   0  -1   7  185.28   20.10
   0  -1  -7  139.29   20.80
   0   1   7  180.08   21.30
   0   1  -7  205.38   19.30
  -1  -1  -7  340.97   29.50
   1   1  -7  307.27   29.20
  -1   1   7  436.76   31.90
  -1   1   7  452.25   35.10
   1  -1   7  455.65   33.60
  -1   1  -7  464.45   35.90
   1  -1  -7  423.96   36.40
  -1   1  -7  456.35   32.10
  -1  -1   7  310.87   28.90
   1  -1  -7  377.36   30.90
   2   1  -7   66.79   14.50
  -2  -1  -7   69.79   15.80
   2  -1   7  102.99   13.70
  -2  -1  -7   81.29    9.90
   2  -1  -7  106.59   16.20
   2   1   7   72.89   13.50
  -2  -1   7   73.39   10.40
  -2  -1   7   56.89   11.70
   2  -1  -7   70.59   12.60
  -2   1  -7   51.29   13.40
   3  -1   7  266.77   21.30
   3   1  -7  192.18   21.50
   3   1  -7  225.48   19.10
  -3  -1  -7  221.18   25.00
  -3   1   7  182.58   19.20
   3  -1  -7  247.08   25.30
  -3  -1   7  248.48   21.80
   3  -1  -7  234.98   19.30
   3   1   7  192.18   20.30
  -3   1  -7  213.48   22.70
  -3  -1   7  221.48   18.90
  -3   1  -7  205.18   17.80
  -4   1   7   70.79   11.00
   4   1  -7   55.09    9.10
   4  -1   7   53.69    9.50
   4   1  -7   71.19   14.40
  -4  -1  -7   32.90   11.20
  -4   1   7   41.70    9.00
   4   1   7   60.09   10.70
  -4   1  -7   65.49   13.20
  -4   1  -7   50.69    7.60
  -4  -1   7   64.49    9.30
   4  -1  -7   60.89   13.40
   4  -1  -7   56.39    8.20
  -4  -1   7   67.09   11.60
   5   1  -7   85.89   10.00
   5  -1   7   80.09    9.40
  -5   1   7   87.99   11.30
  -5  -1  -7   94.49   17.40
  -5   1   7   91.59   11.80
  -5  -1   7   92.29   11.20
  -5  -1   7   78.59   11.20
  -5   1  -7   96.79   14.70
   5  -1  -7   88.59    8.60
   5   1   7   59.49   11.70
   5  -1  -7   80.19   14.60
  -5   1  -7   85.69    9.10
  -6   1   7   14.20    5.90
   6   1  -7    3.30    6.50
   6   1  -7    9.00    4.00
  -6   1   7   10.30    5.20
  -6  -1   7    7.40    5.70
   6   1   7    3.50    6.60
  -6  -1   7   17.40    5.80
  -6   1  -7   10.00    4.20
   0  -2  -7   50.99   11.00
   0  -2  -7   77.19   17.60
   0  -2   7   88.09   12.70
   0   2  -7   50.49   10.80
   0   2   7   96.09   14.50
   0  -2   7   42.70    9.90
   0   2  -7   67.79   12.90
  -1   2   7  716.73   56.79
   1   2  -7  887.41   57.69
  -1   2   7  874.21   53.89
   1  -2   7  797.02   50.39
  -1  -2  -7  816.22   61.39
   1   2  -7  790.72   55.19
  -1  -2  -7  765.82   51.59
  -1  -2   7  762.42   51.59
  -1   2  -7  766.52   56.29
   1  -2  -7  888.71   54.99
  -1  -2   7  771.42   55.69
  -1   2  -7  863.71   53.79
   1   2   7  785.82   55.69
   2   2  -7   79.09   11.80
   2   2  -7   66.79   11.90
  -2  -2  -7   76.19   16.40
  -2   2   7   97.29   12.70
  -2   2   7   80.29   17.60
   2   2   7   87.29   13.00
  -2  -2   7   65.19    9.80
  -2  -2   7   78.09   12.10
  -2   2  -7   91.49   13.80
  -2   2  -7   85.89   11.90
   2  -2  -7   48.30   12.80
   3   2  -7  438.96   30.80
  -3  -2  -7  442.86   38.60
   3   2  -7  463.15   33.70
  -3   2   7  350.46   32.40
   3  -2  -7  431.86   37.20
   3  -2  -7  482.45   30.90
  -3   2  -7  355.06   32.30
  -3  -2   7  411.16   30.30
  -3  -2   7  420.56   32.30
   3   2   7  432.26   37.10
  -4  -2  -7   36.50   12.10
   4  -2   7   21.90    5.30
  -4   2   7   34.30    8.30
   4   2  -7   29.20    6.70
  -4   2   7   26.30    7.70
   4   2  -7   34.70    8.40
   4  -2  -7   30.70    6.00
  -4   2  -7   55.19   10.60
  -4  -2   7   20.40    8.90
  -4  -2   7   41.60    9.20
   4  -2  -7   41.10   11.50
  -4   2  -7   40.60    8.00
   4   2   7   27.30    8.00
  -5   2   7  174.48   17.00
  -5   2   7  161.18   17.10
  -5  -2  -7  212.18   24.60
   5   2  -7  184.98   15.60
   5   2  -7  184.38   19.00
   5  -2  -7  170.88   20.00
  -5  -2   7  176.28   16.50
  -5   2  -7  199.98   15.20
  -5  -2   7  191.28   17.80
   5  -2  -7  173.98   12.40
   5   2   7  179.48   18.10
  -6  -2  -7   17.80    5.40
   6   2  -7   10.80    6.10
   6   2  -7   10.00    5.10
  -6   2   7   13.90    5.70
   6  -2  -7    0.60    6.80
  -6   2  -7   12.90    5.10
   6   2   7   12.70    7.00
  -6  -2   7   15.40    5.70
   0  -3  -7  399.06   38.00
   0   3  -7  426.06   31.00
   0   3  -7  403.06   31.40
   0  -3   7  406.76   31.20
   0   3   7  393.06   34.10
   0  -3   7  326.77   28.40
   1   3  -7  487.05   37.20
   1   3  -7  480.95   36.50
   1  -3   7  588.94   35.60
  -1  -3  -7  512.75   35.30
  -1  -3  -7  512.25   45.00
   1  -3   7  545.45   37.50
  -1  -3   7  517.45   37.80
   1  -3  -7  598.24   43.10
   1   3   7  497.35   39.00
  -1  -3   7  508.65   35.30
   1  -3  -7  372.66   40.80
   2  -3   7  223.08   18.70
  -2  -3  -7  183.58   24.50
  -2   3   7  210.28   19.40
   2   3  -7  195.28   18.40
  -2   3   7  249.18   24.40
   2   3  -7  182.18   18.70
   2  -3  -7  156.68   17.90
  -2   3  -7  230.18   21.70
   2   3   7  203.68   20.70
  -2  -3   7  194.28   19.30
  -2   3  -7  184.58   18.10
  -2  -3   7  187.88   17.60
   3   3  -7  303.27   24.50
  -3  -3  -7  332.97   33.00
   3  -3   7  306.17   22.70
  -3   3   7  335.57   28.40
  -3   3   7  324.17   26.40
   3   3  -7  274.57   25.10
  -3   3  -7  355.86   24.90
   3   3   7  307.87   27.10
  -3  -3   7  320.27   26.20
   3  -3  -7  295.67   23.50
  -3  -3   7  299.47   24.30
  -4  -3  -7  106.39   20.30
   4   3  -7  132.19   14.10
  -4   3   7  103.29   14.40
   4   3  -7  113.69   14.30
   4  -3   7  131.39   10.70
   4  -3  -7  144.99   11.90
  -4  -3   7  136.99   14.00
  -4  -3   7  147.39   15.50
  -4   3  -7  121.79   13.70
   4   3   7  133.09   16.10
  -5  -3  -7  123.39   21.60
   5   3  -7   96.29   12.00
   5   3  -7  116.99   14.10
  -5   3   7  120.49   13.30
  -5  -3   7  102.09   12.50
  -5   3  -7   75.49   11.10
   5   3   7  103.89   14.50
  -6   3   7   41.20    7.30
  -6  -3  -7   15.90    5.90
  -6   3   7    1.10    5.70
   6   3  -7   22.90    6.60
   6   3  -7   21.40    7.10
   6   3   7   40.10    9.40
  -6  -3   7   31.50    7.50
  -6   3  -7   17.60    6.00
   6  -3  -7   23.40    9.10
   0   4   7   45.30   10.70
   0  -4  -7   47.40   10.40
   0  -4   7   45.90    9.10
   0  -4  -7   50.69   13.90
   0   4  -7   66.79   11.40
   0   4  -7   36.50    8.70
   0  -4   7   67.19   12.40
   1  -4   7  428.86   30.70
  -1   4   7  377.26   34.00
   1   4  -7  417.16   31.20
   1  -4   7  420.36   29.70
  -1  -4  -7  434.66   40.20
   1   4  -7  433.76   32.00
  -1  -4  -7  409.86   29.60
  -1  -4   7  438.16   32.30
  -1   4  -7  392.76   31.40
   1   4   7  415.66   34.10
   1  -4  -7  448.86   40.20
  -1  -4   7  400.66   29.60
   1  -4  -7  394.76   32.50
  -1   4  -7  411.86   31.00
  -2  -4  -7   43.70   14.60
   2  -4   7   43.20    8.60
   2   4  -7   38.10    8.50
   2   4  -7   52.09    9.80
  -2   4   7   27.30    9.80
  -2  -4   7   64.99   12.30
  -2  -4   7   47.10    8.90
  -2   4  -7   33.40    8.60
   2  -4  -7   38.00   12.10
   2   4   7   29.10    8.70
   3   4  -7  256.37   23.10
  -3   4   7  269.27   24.80
   3  -4   7  239.48   18.10
  -3   4   7  268.97   22.20
  -3  -4  -7  292.77   31.30
   3   4  -7  262.77   21.50
   3   4   7  247.58   23.90
  -3  -4   7  243.68   27.80
  -3   4  -7  191.08   19.30
  -3   4  -7  272.07   22.20
  -3  -4   7  234.68   21.70
   3  -4  -7  259.87   28.20
   3  -4  -7  210.58   19.00
  -4   4   7   13.00    7.30
   4   4  -7   18.80    6.50
  -4  -4  -7   28.90   11.70
   4   4  -7   21.00    6.40
  -4   4   7   27.90    7.70
   4   4   7   23.30    7.90
  -4   4  -7   21.20    6.50
  -4  -4   7   16.60    5.80
   4  -4  -7   31.90   10.30
  -4  -4   7   24.60    6.90
  -4   4  -7   28.30    6.50
   4  -4  -7   31.50    5.50
   5   4  -7  100.59   13.20
  -5   4   7   92.29   12.80
  -5  -4  -7   87.99   11.30
  -5  -4  -7  101.19   20.60
  -5   4   7  107.59   13.70
  -5  -4   7  100.49   12.60
   5  -4  -7   94.39   16.70
  -5   4  -7  133.39   12.40
   6   4  -7    4.40    4.90
  -6  -4  -7   10.30    5.70
  -6   4   7   16.90    6.50
  -6   4   7    8.90    5.50
  -6   4  -7   -3.90    4.90
   6  -4  -7   22.20    9.10
   0   5  -7  546.15   38.10
   0   5   7  546.35   41.60
   0   5  -7  522.65   37.90
   0  -5   7  537.75   38.10
   0  -5  -7  499.35   37.50
   0  -5   7  562.14   36.50
   0  -5  -7  607.64   49.10
  -1  -5  -7  152.28   23.10
   1   5  -7  164.98   16.80
  -1  -5  -7  166.78   15.70
  -1   5   7  136.69   18.40
   1   5  -7  180.18   17.40
  -1  -5   7  157.98   17.00
  -1  -5   7  177.48   16.10
   1  -5  -7  184.88   24.60
  -1   5  -7  160.28   16.40
  -1   5  -7  205.78   17.60
   2  -5   7  460.05   29.70
  -2   5   7  327.47   33.30
   2   5  -7  460.25   32.70
  -2  -5  -7  441.46   41.60
   2   5  -7  391.06   30.90
  -2  -5   7  428.96   30.70
   2  -5  -7  465.35   32.40
  -2   5  -7  398.16   31.50
   2  -5  -7  443.56   40.30
  -2   5  -7  418.16   38.10
   2   5   7  428.76   35.50
   3   5  -7  109.49   13.10
   3  -5   7   92.49    9.60
  -3   5   7  107.59   16.60
   3   5  -7  112.59   15.10
   3  -5  -7  135.79   23.40
  -3  -5   7   92.89   11.80
   3   5   7  102.29   17.20
  -3   5  -7  112.19   13.20
  -3  -5   7  113.59   13.50
   3  -5  -7   67.29   10.60
  -3   5  -7   87.29   11.90
   4   5  -7  225.28   20.20
  -4   5   7  240.68   22.20
  -4  -5  -7  214.68   18.90
  -4   5   7  246.18   21.80
   4   5  -7  212.88   21.70
  -4  -5  -7  170.98   26.00
  -4   5  -7  179.28   17.20
   4  -5  -7  208.28   24.10
  -4  -5   7  218.78   19.00
   4  -5  -7  214.68   15.00
   5   5  -7   47.80    9.10
  -5  -5  -7   35.40   12.80
  -5   5   7   20.60    7.50
   5   5  -7   37.20    8.30
  -5   5   7   38.30    8.00
  -5  -5  -7   50.99    8.80
   5  -5  -7   40.60   12.40
   5   5   7   41.30   11.10
  -5   5  -7   24.40    6.30
  -5  -5   7   33.50    7.70
   0  -6   7   21.10    6.20
   0  -6  -7   24.00   10.50
   0  -6  -7    7.90    5.10
   0   6  -7   19.60    6.30
   0   6  -7   29.00    7.50
   0  -6   7   27.80    7.40
   0   6   7   24.10    9.00
   1  -6   7   -0.30    3.70
   1   6  -7    4.30    3.60
  -1   6   7   -4.10    4.60
   1   6  -7    2.10    4.00
  -1  -6  -7    4.10    3.50
   1  -6   7   -2.60    3.10
  -1  -6  -7  -11.10    9.40
  -1   6  -7   -4.90    3.90
  -1  -6   7    1.00    3.70
   1  -6  -7   -4.20    4.80
  -1  -6   7    7.60    3.60
  -1   6  -7   -2.90    2.60
   1  -6  -7    3.00    7.30
   2   6  -7   22.10    6.50
  -2   6   7    6.70    6.80
  -2  -6  -7   19.90   10.00
   2  -6  -7   11.90    9.20
   2  -6  -7   20.20    5.40
   2   6   7   12.70    9.20
  -2   6  -7   19.40    6.10
  -2  -6   7   17.40    5.50
  -2   6  -7   23.80    6.60
   2  -6  -7   21.70    7.40
  -3  -6  -7    0.50    3.60
  -3   6   7    1.70    6.80
   3   6  -7    2.90    3.70
  -3  -6  -7   -1.60    7.10
  -3   6  -7    3.50    4.50
   3  -6  -7    6.70    6.90
   3  -6  -7   -9.00    3.80
   3   6   7    0.20    7.70
  -3  -6   7    0.70    3.40
  -3   6  -7    7.00    4.70
   3  -6  -7    2.50    2.80
   4   6  -7    4.60    4.20
  -4  -6  -7    3.80    4.40
   4   6  -7   18.70    6.70
  -4  -6  -7   23.10   11.30
  -4   6   7   13.00    7.10
   4  -6  -7    7.10    2.60
  -4  -6   7    6.60    4.70
   4   6   7    9.10    8.40
   4  -6  -7   14.50    9.10
   4  -6  -7    8.10    3.00
  -4   6  -7   13.50    7.50
   5   6  -7   -2.40    4.00
  -5   6   7   -9.00    5.90
   5   6  -7    7.70    6.80
  -5  -6  -7    4.10    4.60
  -5   6  -7    4.30    4.10
   5  -6  -7   -8.40    7.70
   0  -7  -7  118.39   13.60
   0  -7  -7  115.99   23.10
   0   7  -7  104.49   12.90
   0   7  -7  115.59   13.00
   0  -7  -7  104.09   14.50
   0  -7   7  111.49   11.90
   0   7   7  100.99   17.50
  -1  -7  -7  185.98   27.50
   1   7  -7  209.88   19.30
  -1   7   7  209.88   22.60
   1   7  -7  197.08   18.90
  -1  -7  -7  190.48   18.70
  -1   7  -7  222.98   18.80
  -1  -7   7  194.48   19.70
   1  -7  -7  223.78   28.40
  -1   7  -7  239.58   19.40
   1  -7  -7  215.18   18.40
   2   7  -7  145.59   15.20
  -2   7   7  133.09   17.70
  -2  -7  -7  128.39   14.60
  -2  -7  -7   97.69   20.70
   2  -7  -7  158.68   16.40
  -2   7  -7  133.69   13.80
  -2  -7   7  134.79   14.10
  -2   7  -7  144.69   14.40
   2  -7  -7  135.59   13.00
   2  -7  -7  129.39   26.20
  -3  -7  -7  133.69   14.40
   3   7  -7  138.99   14.80
   3   7  -7  117.29   14.10
  -3   7   7   91.49   17.10
  -3  -7  -7   88.99   22.40
  -3   7  -7  101.29   13.00
   3   7   7  139.29   19.50
  -3   7  -7  136.29   13.50
   3  -7  -7  120.19   11.10
  -3  -7   7  138.19   13.90
   3  -7  -7  141.89   27.70
   4   7  -7   42.50    9.70
  -4  -7  -7   56.49   17.80
  -4   7   7   57.09   12.00
  -4  -7  -7   42.20    8.70
  -4  -7   7   46.70    8.90
   4  -7  -7   46.30   14.50
  -4   7  -7   52.29    7.90
  -5   7   7   30.60    9.20
   5   7  -7   57.39   10.80
   0  -8  -7   27.20    9.30
   0   8  -7   18.30    5.90
   0   8  -7   32.20    8.30
   0  -8   7   25.90    6.20
   0   8   7   27.40    9.70
   0  -8  -7   23.20   13.20
   0  -8  -7   21.60    6.40
   1  -8   7    8.80    4.20
  -1   8   7   -2.30    6.60
  -1  -8  -7    5.30    4.40
   1   8  -7    5.20    5.50
   1   8  -7    0.70    3.20
  -1  -8  -7   -3.70    4.00
  -1  -8  -7    3.10    7.70
   1   8   7    4.80    6.50
  -1   8  -7   -2.70    4.90
   1  -8  -7   -1.90    3.60
  -1  -8   7    4.30    3.90
   1  -8  -7   -6.20    5.40
   1  -8  -7    6.10    9.60
  -1   8  -7    4.30    3.70
   2   8  -7   13.40    6.80
  -2   8   7   13.10    7.60
   2   8  -7   14.80    5.20
  -2  -8  -7   10.90    5.50
  -2  -8  -7   26.50   13.20
  -2   8  -7   22.60    6.70
   2  -8  -7   17.80    7.30
  -2  -8   7   13.90    5.40
   2  -8  -7   19.50    5.20
  -2   8  -7   23.10    6.10
   2  -8  -7    9.90   10.20
   2   8   7   11.90    7.50
  -3  -8  -7   -3.00    3.90
  -3   8   7   -6.80    7.60
  -3  -8  -7    7.50    8.80
   3   8  -7   -2.10    3.60
   3  -8  -7   -2.90    9.30
   3  -8  -7    1.70    3.10
  -3   8  -7    2.40    4.20
  -3   8  -7    7.10    4.70
  -3  -8   7    0.70    3.90
  -3   8  -7   -8.10    7.30
  -4  -8  -7   12.00   12.80
  -4   8   7    8.70    9.00
  -4  -8  -7   22.60    6.70
   4   8  -7   10.50    5.40
   4  -8  -7    9.20    9.80
  -4   8  -7   17.10    5.60
  -4  -8   7    1.30    4.70
   0  -9   7   27.50    8.20
   0  -9  -7   37.50    9.00
   0  -9  -7   32.10   13.10
   0   9  -7   22.80    8.10
   0  -9  -7   42.50    8.40
   0   9   7   48.20   13.70
   0   9  -7   31.60    7.90
   1   9  -7   46.40    9.40
  -1   9   7   23.50    9.90
   1  -9   7   29.00    6.80
  -1  -9  -7   22.70    8.90
  -1  -9  -7   39.60    8.30
  -1  -9  -7   38.50   14.10
  -1   9  -7   47.20    8.90
   1  -9  -7   13.00    8.10
   1  -9  -7   32.80    6.80
  -1   9  -7   53.99    9.80
  -1  -9   7   31.40    7.00
   1  -9  -7   34.80   14.90
  -2   9   7   32.90   10.30
  -2  -9  -7   39.80   15.00
   2   9  -7   25.60    6.70
  -2  -9  -7   29.30    7.60
   2  -9  -7   26.10    6.30
   2  -9  -7   21.30   12.00
  -2   9  -7   37.30   13.00
   2  -9  -7   29.20    9.10
  -2  -9   7   33.80    7.30
  -3  -9  -7   30.90    7.80
   3   9  -7   19.20    6.10
  -3  -9  -7   24.40   20.80
  -3   9   7   26.70   10.60
   3  -9  -7   15.60   11.00
   3  -9  -7   25.20    4.90
  -3   9  -7   26.80   11.90
  -3   9  -7   25.20    6.60
  -3   9  -7   41.50    7.90
   0 -10  -7   20.00   13.10
   0 -10   7    5.20    4.30
   0 -10  -7    8.60    5.30
   0  10  -7    4.60    4.40
  -1 -10  -7   23.40   14.00
   1 -10   7    8.00    5.90
  -1 -10  -7   14.60    6.40
   1  10  -7   16.40    5.40
   1 -10  -7   13.50    5.50
  -1 -10   7    5.90    5.10
   1 -10  -7   29.90   12.90
  -1  10  -7   -5.80   11.80
   1 -10  -7   15.70    8.30
  -1  10  -7   15.40    5.70
   2  10  -7    2.40    4.20
  -2 -10  -7    4.90    5.50
  -2 -10  -7   12.20   11.60
  -2 -10   7    0.70    5.00
   2 -10  -7    3.60   10.90
  -2  10  -7   -2.50    4.20
  -2  10  -7   13.80   12.50
   2 -10  -7    3.80    4.10
   0   0  -8  345.57   27.50
   0   0   8  299.97   24.80
   0   0   8  295.27   28.00
   0   0  -8  288.77   29.50
   1   0   8   91.99   17.30
  -1   0   8   94.99   12.60
   1   0  -8   58.09   12.30
  -1   0  -8   87.59   18.60
  -1   0   8  108.09   14.80
  -1   0  -8   88.39   22.70
   1   0  -8   75.89   14.90
  -2   0  -8   31.30   10.80
  -2   0   8   64.59   12.10
  -2   0   8   52.19   10.90
  -2   0  -8   74.69   16.20
   3   0  -8   55.69   13.90
  -3   0   8   49.80    9.80
  -3   0  -8   40.80    8.50
  -3   0   8   38.00   10.40
   3   0  -8   44.10    9.40
   3   0   8   40.70   10.10
  -3   0  -8   59.29   13.80
   4   0  -8  110.69   11.80
   4   0  -8   82.99   17.10
  -4   0  -8  101.49   10.90
   4   0   8  107.79   14.00
  -4   0   8   91.99   13.40
  -4   0   8   86.39   12.00
  -4   0  -8   94.49   16.90
   5   0  -8    9.00    7.70
  -5   0  -8   26.50    6.10
  -5   0  -8   23.20    9.60
  -5   0   8   33.50    8.10
   5   0  -8   16.20    5.70
  -5   0   8   25.30    7.50
   5   0   8   28.00    7.50
   6   0   8   22.00    5.90
   6   0  -8   22.30    8.50
   6   0  -8   14.10    4.40
  -6   0  -8   23.40    5.90
  -6   0   8   17.60    7.60
  -6   0   8   16.40    6.50
   0   1   8   37.40    8.60
   0  -1   8   30.80    7.90
   0   1   8   18.60    7.60
   0   1  -8   30.10    9.30
   0   1  -8   22.70    7.50
   0  -1   8   22.50    7.90
   0  -1  -8   48.50   13.80
   0  -1  -8   40.10    9.70
  -1  -1  -8    4.70    4.50
  -1   1   8    1.80    5.20
   1   1  -8    5.00    4.50
   1   1  -8    2.20    4.50
  -1  -1  -8    3.20    6.60
   1  -1   8    2.20    4.50
  -1   1   8   -1.50    3.30
  -1   1  -8    4.00    5.10
  -1  -1   8    2.70    3.70
   1   1   8   -4.90    4.90
   1  -1  -8    3.60    4.80
   1  -1  -8    3.10    4.50
  -1  -1   8    0.70    3.80
   2   1  -8   23.40    7.70
  -2   1   8   24.10    8.80
  -2  -1  -8    8.80    4.80
  -2   1   8    5.80    4.90
   2   1  -8    3.30    5.60
  -2  -1  -8   16.90    9.00
   2  -1   8   22.60    7.70
   2   1   8   15.90    8.00
  -2   1  -8    6.70    6.50
  -2  -1   8    6.10    5.00
   2  -1  -8   13.70    6.00
   2  -1  -8   10.50    6.40
  -2  -1   8   12.10    5.70
  -2   1  -8   10.90    7.20
  -3  -1  -8    2.20    3.30
   3  -1   8    9.50    5.30
  -3   1   8    1.20    4.60
   3   1  -8    6.60    4.40
  -3   1   8   -5.80    4.30
  -3  -1  -8    4.90    6.50
   3   1  -8    0.60    4.30
   3   1   8    8.00    5.50
   3  -1  -8    3.20    5.90
  -3  -1   8   -3.20    3.20
   3  -1  -8    1.40    4.20
  -3  -1   8    0.00    4.30
  -3   1  -8   -0.70    6.10
   4   1  -8   -5.90    9.70
   4   1  -8   12.40    5.00
  -4   1   8    5.90    5.20
  -4  -1  -8   13.60    8.60
  -4   1   8   16.70    5.90
  -4  -1  -8   15.30    4.70
   4  -1   8   22.10    6.50
  -4  -1   8    4.10    4.30
   4  -1  -8   15.20    7.40
  -4   1  -8   13.30    7.40
  -4   1  -8   10.80    4.90
   4   1   8    3.80    6.10
  -4  -1   8   19.10    7.10
   4  -1  -8   11.70    4.80
   5   1  -8   -1.20    5.60
   5   1  -8   -4.20    4.00
  -5   1   8   -9.10    4.20
  -5  -1  -8    8.20    7.60
   5  -1   8    4.20    4.20
   5  -1  -8   -6.60    5.50
   5   1   8   -2.60    6.00
  -5   1  -8   -0.60    6.70
  -5   1  -8    4.90    4.20
  -5  -1   8   -6.60    4.60
   5  -1  -8    3.60    3.80
   6   1  -8   -0.10    6.40
  -6   1   8   10.80    5.50
  -6   1   8    1.70    7.00
  -6   1  -8    7.80    4.70
   6   1   8    1.90    6.30
  -6  -1   8    6.70    4.60
   6  -1  -8    6.40    6.60
  -6  -1   8   -9.80    5.80
   0  -2   8   13.80    6.30
   0   2  -8   32.50    9.30
   0  -2  -8   57.39   11.60
   0   2   8   21.10    8.20
   0  -2  -8   24.40    9.70
   0   2  -8   35.60    9.60
   0  -2   8   51.59   10.00
  -1  -2  -8   79.89   17.40
  -1   2   8  123.29   17.30
   1   2  -8  101.09   13.90
  -1  -2  -8  108.19   13.90
   1  -2   8  134.19   12.70
   1   2  -8  103.69   15.40
   1  -2   8   83.09   15.20
  -1   2   8  116.19   13.60
  -1   2  -8  118.79   21.20
  -1  -2   8   98.99   12.90
  -1   2  -8  121.39   16.60
   1  -2  -8  134.69   15.80
   1   2   8   71.79   14.80
   1  -2  -8   78.59   17.40
   2   2  -8   48.10   10.10
   2   2  -8   49.20   11.20
  -2  -2  -8   57.79    9.90
  -2   2   8   59.89   10.90
   2  -2   8   38.70    9.80
  -2   2   8   73.39   14.70
  -2  -2  -8   52.29   15.90
  -2   2  -8   72.29   14.90
   2  -2  -8   43.70    9.70
  -2  -2   8   52.49   10.40
  -2   2  -8   70.49   12.20
   2  -2  -8   46.80   12.80
  -2  -2   8   51.29   11.20
   2   2   8   73.09   14.40
  -3  -2  -8   82.59   18.70
  -3   2   8   46.00   10.60
   3  -2   8   53.79   10.30
  -3   2   8   63.59   12.70
  -3  -2  -8   72.89    9.40
   3   2  -8   60.39   11.10
   3   2  -8   67.39   12.40
  -3   2  -8   61.89   11.30
  -3  -2   8   96.59   13.10
  -3  -2   8   72.89   12.00
   3   2   8   81.89   14.20
   3  -2  -8   59.09   13.80
   3  -2  -8   82.09   11.60
  -4   2   8    9.70    6.80
   4   2  -8   31.10    7.80
  -4  -2  -8    1.90    8.30
   4   2  -8   16.30    7.00
  -4  -2   8   23.80    6.50
   4   2   8   35.20    8.50
  -4  -2   8   28.20    8.20
   4  -2  -8   32.60   10.90
  -4   2  -8   24.20    8.20
  -5   2   8   21.80    7.80
   5   2  -8   27.00    8.70
  -5  -2  -8   41.00   13.70
   5   2  -8   21.50    6.30
   5  -2   8   18.60    4.40
   5   2   8   22.40    7.80
  -5  -2   8   27.20    6.80
  -5   2  -8   27.70    8.50
   5  -2  -8   27.70   11.10
  -5  -2   8   29.80    7.80
   5  -2  -8   31.40    5.40
  -5   2  -8   25.90    6.60
  -6   2   8   12.60    6.70
  -6   2   8    5.30    5.90
   6   2  -8   12.20    7.00
   6   2  -8   10.40    5.50
  -6  -2   8    9.50    5.80
  -6   2  -8    3.80    5.90
   6  -2  -8   10.40    8.90
   6   2   8    4.30    7.90
   0   3   8   -1.30    4.00
   0  -3  -8    3.70    5.70
   0   3  -8    0.20    3.60
   0  -3  -8    3.30    4.70
   0   3  -8   -1.30    4.40
   0  -3   8   -0.10    3.50
   0  -3   8   -0.40    3.50
   1   3  -8  118.09   14.80
   1   3  -8  120.79   15.40
  -1  -3  -8  111.19   13.70
  -1  -3  -8   93.49   19.30
   1  -3   8  132.59   13.10
   1   3   8  145.19   17.10
   1  -3  -8  115.99   15.30
  -1   3  -8   91.99   13.70
  -1  -3   8  120.99   13.60
  -1  -3   8  126.99   15.50
  -2  -3  -8    3.30    3.30
  -2   3   8    1.60    4.60
   2   3  -8    1.30    3.50
   2   3  -8    1.10    4.50
  -2   3   8   -6.50    3.30
  -2  -3  -8    0.50    6.70
   2  -3   8    0.10    3.70
  -2   3  -8   -1.50    4.30
   2  -3  -8    1.30    6.10
   2  -3  -8   -2.00    4.30
  -2  -3   8    4.30    4.40
  -2  -3   8    1.80    3.20
   2   3   8   -4.00    4.10
   3   3  -8   80.19   11.30
   3  -3   8   69.99   10.10
  -3   3   8   64.99   12.50
  -3   3   8   89.49   12.10
   3   3  -8   71.59   15.00
  -3  -3  -8   86.79   18.80
   3   3   8   50.09   11.80
  -3   3  -8   68.99   13.60
  -3   3  -8   91.69   12.60
   3  -3  -8   60.89   10.90
   3  -3  -8   53.89   13.50
  -3  -3   8   82.49   12.20
  -3  -3   8   85.79   11.20
   4   3  -8    1.80    4.80
   4  -3   8   -1.40    3.00
   4   3  -8    8.60    5.40
  -4   3   8   -9.80    4.50
  -4  -3  -8   13.80    8.40
  -4   3   8    0.90    5.50
   4   3   8   -0.90    5.40
  -4   3  -8   -7.30    5.10
   4  -3  -8   -1.50    3.80
   4  -3  -8    8.40    8.10
  -4  -3   8    2.80    4.60
  -4  -3   8    4.20    3.90
  -4   3  -8   -6.70    5.10
   5   3  -8   24.90    7.80
  -5   3   8   25.80    8.20
  -5  -3  -8   26.40   12.60
  -5   3   8   30.10    8.40
   5   3   8   22.50    8.40
   5  -3  -8   16.20    9.90
  -5   3  -8   48.30    9.40
   5  -3  -8   25.10    4.30
  -5  -3   8   40.10    8.40
  -5  -3   8   26.90    8.40
   0  -4  -8  372.66   39.00
   0  -4   8  306.77   28.40
   0  -4   8  420.46   31.80
   0   4  -8  462.95   33.00
   0   4   8  421.16   34.40
   0   4  -8  430.16   32.00
  -1   4   8   71.99   14.70
   1   4  -8  121.59   14.60
  -1  -4  -8  152.38   22.70
   1   4  -8   89.49   13.00
  -1  -4  -8  108.89   13.20
   1  -4   8  111.69   13.60
   1  -4   8  138.89   13.10
   1  -4  -8  120.29   23.00
  -1  -4   8  118.19   14.70
   1   4   8  106.39   15.30
  -1  -4   8  113.99   12.90
   1  -4  -8  125.49   15.90
  -1   4  -8  112.99   15.00
  -1   4  -8   84.89   14.50
  -2   4   8  334.37   34.10
   2   4  -8  422.36   31.90
  -2  -4  -8  446.66   30.00
   2   4  -8  406.96   32.50
   2  -4   8  459.95   30.90
  -2  -4  -8  421.96   41.20
  -2   4  -8  426.36   33.40
   2  -4  -8  435.46   32.10
  -2  -4   8  451.65   31.00
   2   4   8  411.46   34.30
   2  -4  -8  323.97   37.20
   3   4  -8   91.29   12.40
   3  -4   8   87.99    9.90
  -3   4   8   61.89   12.50
  -3  -4  -8   81.49   23.70
   3  -4  -8   51.99    9.80
  -3  -4   8   65.39   10.90
   3  -4  -8   61.29   14.90
  -3   4  -8   70.99   13.00
  -3  -4   8   79.29   12.20
  -3   4  -8   78.19   13.20
   3   4   8   94.79   16.60
  -4   4   8  219.78   18.80
  -4   4   8  172.28   18.90
   4   4  -8  142.69   24.50
  -4  -4  -8  169.38   25.60
   4  -4   8  189.48   13.80
   4   4  -8  175.08   18.30
  -4   4  -8  159.08   17.30
   4  -4  -8  165.78   14.70
  -4  -4   8  185.08   17.10
   4  -4  -8  124.89   22.20
  -4  -4   8  197.18   19.50
  -5   4   8   17.90    7.00
   5   4  -8   26.80    7.60
  -5  -4  -8   42.60   14.10
  -5   4   8   13.60    8.00
   5   4   8   34.60   10.00
  -5  -4   8   15.30    6.50
   5  -4  -8   24.00   10.50
  -5   4  -8   32.60    9.00
   0  -5  -8   30.10    9.50
   0   5  -8   32.30    7.90
   0   5   8   34.70   10.90
   0   5  -8   43.10    9.70
   0  -5   8   23.80    7.10
   0  -5   8   49.60    9.10
   0  -5  -8   41.40   13.20
   1  -5   8   27.40    7.20
   1   5  -8   25.80    6.60
   1  -5   8   28.80    6.80
  -1  -5  -8   16.50   11.00
  -1   5   8   48.70   12.50
   1   5  -8   56.59   10.90
  -1  -5   8   35.50    7.50
   1  -5  -8   41.10   10.40
  -1   5  -8   34.70    8.60
  -1  -5   8   40.70   10.00
   1  -5  -8   43.40   13.60
  -1   5  -8   40.40    9.20
   2   5  -8   20.00    6.80
  -2  -5  -8   23.30    6.20
  -2   5   8    9.20    7.10
   2  -5   8   28.10    6.60
  -2  -5  -8    4.60    9.10
   2   5   8   14.90    7.10
  -2   5  -8    9.40    5.90
  -2   5  -8   20.70    6.70
   2  -5  -8   36.80   14.00
  -2  -5   8   29.20    7.10
   2  -5  -8   32.70    8.30
   3  -5   8   20.70    5.70
   3   5  -8   15.80    5.70
   3   5  -8   29.10    8.70
  -3   5   8   22.60    9.10
  -3  -5  -8   58.79   18.00
  -3   5  -8    0.10    5.40
  -3   5  -8   27.20    7.10
   3  -5  -8   17.80   11.50
   3  -5  -8   14.00    5.70
  -3  -5   8   16.40    5.70
  -3  -5   8   30.10   11.60
   4   5  -8   21.00    7.70
  -4   5   8   19.20    6.40
  -4  -5  -8   11.30    9.80
  -4   5   8   20.50    8.60
   4   5  -8    8.80    4.80
  -4   5  -8   16.30    6.10
  -4  -5   8   11.90    6.50
   4  -5  -8   11.20    3.90
   4  -5  -8   11.30   10.90
  -4  -5   8   19.20    6.00
   4  -5  -8   15.90    5.00
  -4   5  -8    5.30    5.80
   4   5   8   24.10   14.90
  -5   5   8   10.10    7.70
  -5  -5  -8   13.00   11.40
   5   5  -8   11.40    5.90
  -5   5   8   -3.70    5.40
   5   5  -8   12.00    6.80
  -5  -5  -8    8.30    5.30
   5  -5  -8   10.80   10.00
   5   5   8   13.10    8.40
  -5   5  -8   19.20    6.40
   0  -6  -8   57.79   11.40
   0   6   8   35.10   10.80
   0  -6   8   68.99   13.00
   0   6  -8   52.19   10.70
   0  -6  -8   64.49   17.60
   0  -6   8   50.59    9.10
   0   6  -8   65.29   11.40
   1   6  -8    0.20    4.60
   1  -6   8    3.70    4.00
   1   6  -8    6.60    4.30
   1  -6   8   -3.40    3.80
  -1   6   8    8.90    6.50
  -1  -6  -8   -8.80    6.70
  -1  -6   8    6.90    4.10
   1  -6  -8    9.20    6.70
   1  -6  -8   17.00   11.00
  -1   6  -8   10.70    5.70
  -1   6  -8    9.60    4.80
  -2  -6  -8   73.89   18.20
   2  -6   8   69.69    9.50
   2   6  -8   71.79   12.80
  -2   6   8   59.69   14.50
  -2  -6   8   85.79   10.80
   2  -6  -8   65.09   11.00
   2   6   8   56.29   13.30
  -2   6  -8   79.59   12.10
   2  -6  -8   62.29   16.80
  -2   6  -8   55.59   11.10
  -3  -6  -8    2.50    9.20
   3   6  -8    5.60    4.30
  -3  -6  -8    4.30    4.30
   3   6  -8    2.90    5.90
  -3   6   8   13.80    8.50
   3   6   8   18.90    8.80
   3  -6  -8    6.30    3.30
   3  -6  -8   15.90   11.30
  -3   6  -8   -7.60    4.30
  -3  -6   8   -0.50    3.80
   3  -6  -8    2.40    4.70
  -3   6  -8   -5.20    5.20
  -4  -6  -8   14.40    5.90
   4   6  -8   25.80    7.70
  -4  -6  -8   26.80   13.40
  -4   6   8   16.30    8.30
  -4   6  -8   29.80    6.90
  -4   6  -8   14.20    6.20
  -4  -6   8   23.00    6.50
   4   6   8    0.10    8.50
   4  -6  -8   19.70    4.90
   4  -6  -8   15.40    9.40
   4  -6  -8   18.00    4.10
   5   6  -8    2.90    4.80
  -5   6   8   -6.20    6.90
  -5  -6  -8   -4.60   10.80
  -5  -6   8    3.00    4.90
  -5   6  -8   -4.40    5.70
   5  -6  -8   -0.30    9.30
   0   7  -8    3.60    5.20
   0  -7   8   -4.40    3.20
   0  -7  -8    5.40    7.60
   0   7   8    4.70    6.60
   0   7  -8    3.60    3.60
   0  -7  -8    2.50    4.40
  -1   7   8   16.50    7.70
  -1  -7  -8   13.00    9.10
   1  -7   8   10.50    4.40
  -1  -7  -8    4.70    5.50
  -1  -7  -8    8.30    5.00
   1   7  -8    3.30    5.90
   1   7  -8    5.10    4.20
  -1   7  -8    0.10    5.80
   1  -7  -8    6.40    9.00
  -1   7  -8    8.10    4.40
   1  -7  -8   -6.30    6.30
   1  -7  -8    9.50    4.80
  -1  -7   8    0.20    3.80
   2   7  -8    0.50    5.40
   2   7  -8    3.10    3.10
  -2  -7  -8    2.40    3.90
  -2  -7  -8   -4.80    7.50
  -2   7   8    0.90    6.30
  -2   7  -8    0.80    3.90
  -2  -7   8   -2.40    3.70
   2  -7  -8   -5.10    3.10
   2  -7  -8   -3.00    8.80
   2   7   8    2.00    7.00
  -2   7  -8   -6.80    4.70
   2  -7  -8    3.70    5.90
  -3  -7  -8    1.70    4.20
  -3   7   8    3.90    7.80
  -3  -7  -8    5.70   10.90
   3   7  -8    3.30    3.90
  -3   7  -8   -0.70    5.60
   3  -7  -8    6.20    3.40
  -3   7  -8    1.60    4.90
   3  -7  -8   -8.20    7.90
  -3  -7   8    1.50    4.10
   3  -7  -8    3.70    5.00
  -4  -7  -8   -9.00    4.30
  -4   7   8    7.60   10.10
   4   7  -8    3.70    5.70
  -4  -7  -8    9.10   11.10
   4  -7  -8    0.90    2.90
  -4   7  -8    8.70    7.20
   4  -7  -8    3.30    3.70
  -4   7  -8    4.90    5.30
  -4   7  -8   -6.60    5.20
   4  -7  -8   11.40   10.80
   0   8  -8  600.34   39.10
   0  -8  -8  522.05   38.70
   0  -8  -8  575.24   38.70
   0  -8  -8  549.05   50.49
   0   8  -8  576.64   39.10
   0  -8   8  530.75   36.30
   0   8   8  499.55   42.50
  -1   8   8  112.79   17.50
  -1  -8  -8  113.39   14.10
   1   8  -8  109.79   13.50
  -1  -8  -8  102.99   22.10
  -1  -8  -8  111.99   13.80
   1   8  -8  117.39   15.00
   1   8   8   72.69   17.70
  -1   8  -8  124.49   13.30
   1  -8  -8  102.99   12.50
   1  -8  -8  120.69   23.40
  -1  -8   8  126.99   13.20
   2   8  -8  405.76   31.60
  -2  -8  -8  402.16   31.40
  -2  -8  -8  393.86   42.90
  -2   8   8  436.06   35.70
  -2   8  -8  416.96   30.40
   2  -8  -8  443.46   30.10
   2  -8  -8  447.46   42.30
  -2   8  -8  425.36   30.80
   2  -8  -8  478.25   32.30
  -2  -8   8  383.16   29.90
  -3  -8  -8   58.79   10.80
  -3   8   8   39.80   12.10
  -3  -8  -8   60.59   17.40
   3   8  -8   78.79   11.40
  -3  -8   8   66.99   10.60
   3  -8  -8   88.89   19.20
  -3   8  -8   73.79   11.00
  -3   8  -8   42.90    9.70
   3  -8  -8   66.29    8.30
   3  -8  -8   49.00    8.80
   0   9  -8   -3.00    3.70
   0  -9  -8   -0.70    9.50
   0  -9  -8   12.60    7.80
   0  -9  -8    3.20    4.40
   0  -9   8   -1.00    4.20
   1   9  -8   35.40    8.40
  -1  -9  -8   36.10    8.60
  -1  -9  -8   16.00   12.50
   1  -9  -8   11.90    7.80
  -1  -9   8   37.40    7.70
   1  -9  -8   33.20    7.40
  -1   9  -8   44.70    9.00
   1  -9  -8   15.60   14.10
  -1   9  -8   42.90   10.10
   2   9  -8   -0.70    3.90
   2  -9  -8    5.50    4.30
  -2  -9   8   -3.80    4.20
   2  -9  -8   10.10   11.30
  -2   9  -8   -2.20    5.90
  -2   9  -8    4.70    5.00
   3   9  -8   19.10    6.40
  -3  -9  -8   18.40    6.80
  -3  -9  -8   10.20   11.00
   3  -9  -8   10.00    6.60
  -3   9  -8   18.90   12.00
  -3  -9   8   23.00    6.80
   3  -9  -8    0.60   12.50
  -3   9  -8   25.90    8.30
   3  -9  -8   23.30    5.40
  -3   9  -8   25.00    7.30
   0 -10   8   44.00    8.20
   0 -10  -8   47.50    9.10
   0  10  -8   39.10    8.40
   0 -10  -8   49.70   17.30
  -1 -10  -8    2.30    6.10
  -1 -10  -8    1.80   10.00
   1 -10   8   -0.50    5.10
  -1  10  -8    5.80    4.80
  -1 -10   8    3.60    4.80
   1 -10  -8   -3.70    4.20
   0   0   9  525.75   39.30
   0   0  -9  506.25   37.20
   0   0  -9  461.45   40.20
   0   0   9  479.15   34.80
   1   0  -9  292.27   29.00
  -1   0  -9  313.07   30.20
  -1   0  -9  276.07   25.00
  -1   0   9  306.67   27.80
  -1   0   9  269.67   24.50
   1   0   9  316.97   27.30
   1   0  -9  292.77   26.20
  -2   0  -9  153.38   17.40
   2   0  -9  162.38   17.80
  -2   0  -9  182.08   22.30
  -2   0   9  149.09   17.20
   3   0  -9  168.18   17.40
  -3   0   9  172.88   17.20
  -3   0  -9  137.39   20.50
   3   0   9  141.59   17.30
  -3   0  -9  135.49   15.60
  -4   0   9  158.38   17.20
  -4   0  -9  159.08   15.90
  -4   0  -9  225.28   23.60
  -4   0   9  140.49   18.10
   4   0  -9  172.78   20.90
   4   0  -9  175.88   16.90
   4   0   9  201.48   18.90
   5   0   9   74.19   11.60
  -5   0   9   70.79   12.80
  -5   0  -9   92.79   11.20
   5   0  -9   82.19   15.10
   5   0  -9   88.49   11.70
  -5   0   9   87.59   12.60
  -5   0  -9   79.19   15.70
   0  -1  -9  484.85   36.40
   0   1  -9  467.25   39.30
   0   1   9  461.35   38.10
   0  -1  -9  483.75   41.90
   0   1  -9  488.45   36.60
   0  -1   9  514.65   35.20
   1   1  -9   16.20    6.70
  -1  -1  -9   19.40    9.30
   1   1  -9   13.20    7.00
  -1  -1  -9   14.30    6.40
   1  -1   9   25.20    8.40
  -1   1   9   31.70    9.20
  -1   1   9   28.00    7.80
  -1  -1   9   20.30    7.40
  -1   1  -9   34.40   11.30
  -1  -1   9   25.50    9.60
   1  -1  -9   12.20    7.00
   1   1   9   27.40   10.10
   1  -1  -9   31.80   10.90
  -1   1  -9   21.70    7.90
  -2  -1  -9  169.68   24.50
  -2   1   9  237.48   21.70
   2   1  -9  228.68   21.90
  -2  -1  -9  214.88   20.70
   2  -1   9  273.57   23.10
   2   1  -9  191.28   22.90
   2  -1  -9  287.67   27.00
  -2   1  -9  278.87   26.30
   2   1   9  193.28   22.20
   2  -1  -9  162.68   20.10
  -2  -1   9  237.58   21.70
   3   1  -9   15.70    6.90
  -3   1   9    4.40    4.80
  -3  -1  -9   14.70   10.20
  -3  -1  -9   21.70    7.00
  -3   1   9   15.00    7.30
   3  -1   9   19.40    6.00
   3   1  -9    2.90    6.00
  -3  -1   9   14.50    7.80
  -3  -1   9    4.40    4.60
   3  -1  -9   10.60    6.30
  -3   1  -9   14.80    5.50
   3   1   9    9.20    6.10
  -3   1  -9    0.00    6.00
   3  -1  -9   11.90   10.50
   4   1  -9  202.68   18.50
  -4  -1  -9  155.18   16.10
   4  -1   9  194.18   17.60
  -4  -1  -9  205.48   25.80
  -4  -1   9  183.78   19.50
  -4   1  -9  192.08   22.60
  -4  -1   9  177.08   17.80
   4  -1  -9  201.58   17.80
   4  -1  -9  181.38   21.80
  -5  -1  -9    2.70    9.00
   5  -1   9   14.50    5.50
  -5   1   9    7.70    5.70
  -5  -1  -9   -3.70    4.70
  -5   1   9    3.80    7.00
   5   1  -9    1.10    5.30
   5   1  -9    9.20    7.00
   5   1   9    7.20    6.90
  -5  -1   9   -0.20    4.60
   5  -1  -9    7.40    5.10
  -5   1  -9    9.70    8.10
  -5  -1   9    3.50    6.80
   5  -1  -9    4.40    5.70
  -5   1  -9    5.10    5.80
   0  -2   9  490.45   41.60
   0   2  -9  672.63   43.20
   0  -2  -9  502.25   46.80
   0   2  -9  573.04   44.80
   0   2   9  618.74   45.60
   1  -2   9  201.18   17.60
  -1   2   9  216.88   19.60
   1  -2   9  164.48   19.80
  -1   2   9  235.68   23.40
   1  -2  -9  212.78   20.80
   1  -2  -9  184.58   24.00
  -1   2  -9  224.88   20.70
  -1   2  -9  237.08   23.40
   2  -2   9  589.04   40.80
  -2  -2  -9  506.45   37.90
   2   2  -9  533.45   39.90
  -2  -2  -9  499.95   46.70
  -2   2   9  614.94   43.10
  -2   2   9  594.34   39.60
  -2   2  -9  648.34   40.00
   2  -2  -9  510.15   39.20
  -2  -2   9  515.95   38.90
   2  -2  -9  584.14   46.30
  -2  -2   9  419.56   39.40
  -2   2  -9  597.04   43.10
   3   2  -9  107.89   16.30
  -3   2   9  108.09   15.60
   3   2  -9  133.79   15.50
  -3  -2  -9   99.89   20.50
  -3  -2  -9  125.59   13.30
   3  -2   9  118.59   14.20
  -3   2   9  113.99   14.50
  -3   2  -9  140.59   14.60
   3  -2  -9   73.89   12.80
   3   2   9   91.49   16.10
  -3  -2   9  107.09   15.10
   3  -2  -9  106.69   25.00
  -3  -2   9  114.29   13.50
  -4  -2  -9  333.67   32.40
   4   2  -9  253.97   25.60
  -4  -2  -9  306.37   21.40
   4  -2   9  231.18   20.60
  -4   2   9  204.18   22.20
   4   2   9  258.77   24.70
   4  -2  -9  260.47   21.40
  -4   2  -9  244.78   25.70
  -4   2  -9  229.78   21.80
   4  -2  -9  308.07   28.40
  -4  -2   9  314.77   23.30
  -4  -2   9  285.97   27.90
  -5  -2  -9   50.89   26.30
  -5   2   9   14.00    6.80
   5   2  -9   37.10    9.90
   5  -2   9   22.00    5.50
   5  -2  -9   64.99   13.00
  -5   2  -9   69.89   12.00
   5  -2  -9   59.59   13.40
   5   2   9   36.80   10.40
  -5   2  -9   20.30    6.90
  -5  -2   9   41.00    8.50
  -5  -2   9   35.40    9.20
   0   3  -9    7.50    5.70
   0   3  -9   44.40   12.20
   0   3   9    9.70    6.10
   0  -3  -9   12.80    6.80
   0  -3   9   19.40    6.50
   0  -3   9   14.00    6.90
   0  -3  -9   10.20    7.80
   1   3  -9  109.99   16.30
  -1  -3  -9  125.59   16.00
   1  -3   9  162.68   14.30
  -1   3   9  113.49   18.10
  -1  -3  -9  106.09   21.30
   1   3  -9  149.29   20.30
   1  -3  -9  183.68   18.10
  -1   3  -9  157.88   18.50
   1   3   9  148.19   19.00
  -1   3  -9  145.59   16.40
  -1  -3   9  124.99   16.50
  -1  -3   9  128.49   15.30
   2   3  -9   30.30    8.40
  -2   3   9   46.80   14.10
  -2   3   9   26.90    9.00
  -2  -3  -9   36.30    8.40
  -2  -3  -9   57.89   17.90
   2   3  -9   48.70   10.50
   2   3   9   41.30   11.10
   2  -3  -9   26.10   13.20
  -2   3  -9   43.80    9.90
   2  -3  -9   42.80   10.10
  -2  -3   9   39.00    8.50
  -2   3  -9   31.60    9.30
  -3   3   9  113.49   15.40
  -3  -3  -9   93.69   11.60
   3   3  -9   64.49   12.80
  -3   3   9   82.29   12.20
  -3   3  -9   85.09   15.30
  -3   3  -9  112.29   13.20
  -3  -3   9   83.19   11.40
  -3  -3   9   93.19   14.20
   3  -3  -9   62.09   17.20
   3   3   9   88.49   15.60
  -4   3   9    4.80    5.00
  -4  -3  -9    6.20    9.10
   4   3  -9    6.50    6.20
   4  -3   9    1.50    4.10
   4   3  -9    1.40    4.50
  -4   3   9    7.10    6.80
  -4  -3  -9    0.60    4.60
  -4  -3   9    4.00    6.10
   4  -3  -9    3.20    8.50
  -4   3  -9   15.80    7.20
  -4  -3   9    7.80    5.20
  -4   3  -9    0.30    5.60
   4  -3  -9    9.60    5.30
  -5   3   9   36.50    8.50
   5   3  -9   45.40   10.70
   5   3  -9   59.29   11.80
  -5  -3  -9   49.90   15.70
   5  -3  -9   31.80   10.80
   5  -3  -9   39.70    6.60
   5   3   9   28.80   15.80
  -5  -3   9   34.00    8.00
  -5   3  -9   36.00    8.00
   0   4  -9   71.49   12.90
   0   4  -9   79.39   15.10
   0  -4  -9   53.79   18.00
   0  -4   9   61.09   12.00
   1  -4   9   35.80    8.80
   1  -4   9   50.49    8.50
  -1   4   9   24.00   10.20
   1   4  -9   56.69   19.20
  -1   4  -9   18.60    8.40
  -1   4  -9   22.30    7.60
  -1  -4   9   33.40    8.00
   1  -4  -9   43.20   10.50
  -1  -4   9   40.00    9.60
   1   4   9   49.00   11.40
   1  -4  -9   16.00   12.80
   2  -4   9   57.29   10.50
  -2  -4  -9   59.49   10.10
   2   4  -9   31.10    8.30
  -2  -4  -9   58.39   16.30
  -2   4   9   31.60   10.10
  -2   4  -9   44.80   10.60
   2  -4  -9   29.40   15.10
  -2  -4   9   44.90    9.10
  -2   4  -9   39.60    9.30
   2  -4  -9   73.79   12.00
   2   4   9   55.79   12.50
   3   4  -9   29.80    7.80
  -3   4   9   26.60    9.40
  -3  -4  -9   27.50    7.00
   3   4  -9   49.90   12.30
  -3  -4  -9   13.50   11.20
  -3   4   9   30.30    7.60
   3  -4   9   34.60    7.20
   3  -4  -9   13.90    6.50
  -3  -4   9   44.10    9.80
   3  -4  -9   14.60   10.70
  -3   4  -9   32.00    9.20
  -3   4  -9   35.50    8.40
  -3  -4   9   33.50    7.80
  -4   4   9   49.20   11.70
   4   4  -9   27.60    8.30
   4  -4   9   37.60    6.70
  -4  -4  -9   41.60   14.80
  -4   4   9   41.10    8.80
   4   4  -9   35.60    9.50
  -4  -4   9   29.20    7.60
   4  -4  -9    9.40    9.20
  -4   4  -9   38.50    8.80
   4  -4  -9   28.00    7.40
  -4  -4   9   24.10    9.70
   5   4  -9   21.40    7.80
  -5   4   9   15.70    6.80
  -5   4   9    8.70    8.50
  -5  -4  -9    8.40   11.30
   5   4  -9   19.90    8.10
   5  -4  -9   13.40    4.10
  -5   4  -9   17.40    6.90
   5  -4  -9   21.00    4.20
   5   4   9    0.50    8.20
   5  -4  -9    7.60    8.60
   0  -5   9  576.54   40.30
   0   5  -9  505.15   39.70
   0  -5  -9  519.95   49.00
   0   5  -9  548.55   39.70
   1  -5   9  178.78   15.20
  -1  -5  -9  184.78   31.70
  -1   5   9  126.59   19.80
   1   5  -9  180.28   18.20
   1   5  -9  125.29   16.40
   1  -5   9  165.78   17.20
  -1   5  -9  178.68   18.50
   1  -5  -9  174.78   26.10
   1  -5  -9  151.38   17.80
  -1   5  -9  124.59   16.70
   2  -5   9  429.76   30.80
  -2  -5  -9  426.96   34.80
  -2  -5  -9  427.86   43.50
   2   5  -9  436.96   33.30
   2   5   9  435.96   35.80
   2  -5  -9  423.66   41.70
   2  -5  -9  466.45   32.40
  -2   5  -9  337.27   31.60
  -2  -5   9  408.66   30.60
  -3  -5  -9  114.49   22.40
   3   5  -9  135.09   14.80
  -3  -5  -9   95.09   12.20
  -3   5   9  122.89   19.10
   3  -5   9   99.09   11.50
   3   5  -9  117.89   14.80
   3   5   9   92.99   16.30
  -3   5  -9  130.99   14.90
   3  -5  -9   70.59   17.90
  -3  -5   9  115.89   15.30
   3  -5  -9   70.89   12.10
  -3  -5   9   93.79   12.30
   4  -5   9  222.38   15.80
  -4  -5  -9  213.08   30.00
  -4   5   9  246.08   20.40
  -4   5   9  237.28   28.70
   4   5  -9  255.97   25.90
   4   5  -9  210.88   20.80
   4   5   9  249.48   23.50
  -4   5  -9  156.08   18.70
  -4  -5   9  202.78   18.70
   4  -5  -9  137.39   24.60
   4  -5  -9  166.58   16.50
  -5   5   9   58.19   10.50
  -5  -5  -9   24.70   15.10
   5   5  -9   40.00    9.50
  -5  -5  -9   51.29   11.70
  -5   5   9   28.80    9.60
   5  -5  -9   33.10   14.40
  -5   5  -9   33.60    9.00
  -5  -5   9   60.79   10.30
   0  -6   9   40.70    8.60
   0   6  -9   77.19   11.20
   0  -6  -9   68.89   19.20
   0  -6  -9   41.60   10.80
   0   6  -9   54.49   10.90
   1   6  -9    3.00    3.70
  -1  -6  -9  -14.00    8.20
   1   6  -9   -3.80    6.40
   1  -6   9    1.90    4.60
   1  -6   9   -0.30    3.90
  -1   6   9    3.90    6.90
  -1  -6  -9    1.00    5.00
  -1   6  -9   -4.70    5.50
  -1   6  -9   -1.60    4.10
  -1  -6   9    1.70    5.90
   1  -6  -9  -10.30    8.80
  -1  -6   9   -1.00    3.80
   2  -6   9   50.49    9.30
  -2   6   9   40.20   14.20
   2   6  -9   36.90    8.50
  -2  -6  -9   38.00   14.00
   2   6  -9   52.29   10.30
  -2  -6  -9   44.80    9.10
  -2   6  -9   43.80   10.60
  -2  -6   9   43.40   10.60
  -2   6  -9   19.40    8.00
  -2  -6   9   37.60    7.90
   2  -6  -9   46.80   15.50
   2   6   9   59.19   13.30
   2  -6  -9   48.90    9.80
   3   6  -9    3.30    4.90
  -3  -6  -9   -3.20   10.80
   3  -6   9   -2.30    4.00
  -3   6   9   -0.80    8.50
   3  -6  -9   -5.40    9.00
   3  -6  -9   -1.40    5.50
   3  -6  -9   -3.80    3.40
  -3   6  -9    3.70    5.10
  -3   6  -9    3.60    5.80
  -3  -6   9    3.30    4.80
   3   6   9    8.50    8.20
  -4  -6  -9   24.60   15.50
  -4   6   9   58.89   12.60
   4   6  -9   19.10    6.70
  -4  -6  -9   31.10    7.90
   4  -6  -9   23.50   11.90
  -4   6  -9   25.70    8.50
   4  -6  -9   24.40    5.40
   4  -6  -9   21.00    7.50
  -4   6  -9   11.50    6.80
   0  -7  -9   22.10    8.70
   0  -7   9   25.90    7.00
   0   7  -9   24.90    7.90
   0  -7   9   35.60   14.10
   0   7   9   16.10    9.80
   0  -7  -9   27.90   13.80
   0   7  -9   19.90    7.00
  -1   7   9   72.99   14.50
   1   7  -9  113.99   13.20
   1  -7   9   69.79   10.60
   1   7  -9   80.99   13.30
  -1  -7  -9   62.09   11.30
  -1  -7  -9  123.19   26.20
   1  -7  -9  107.09   24.00
  -1   7  -9   79.29   11.80
   1  -7  -9   94.29   12.30
   1   7   9   74.99   15.50
  -1  -7   9   94.49   11.50
   1  -7  -9   64.09   14.30
  -1  -7   9   76.59   13.80
  -2  -7  -9    5.20   10.60
   2   7  -9   12.70    5.40
  -2   7   9    4.20    8.40
  -2  -7  -9    5.20    5.20
  -2   7  -9   16.40    7.20
   2  -7  -9    8.50    9.90
   2  -7  -9    6.50    4.90
  -2  -7   9   11.30    5.40
  -2   7  -9    5.60    6.30
  -3   7   9   49.99   13.30
  -3  -7  -9   57.89   18.00
  -3  -7  -9   52.99    9.80
  -3  -7   9   58.49   10.40
   3  -7  -9   52.19    8.40
  -3   7  -9   67.19   11.40
   3  -7  -9   44.60    9.50
  -3   7  -9   62.79   11.70
   3  -7  -9   49.10   15.20
   4   7  -9   12.20    6.10
  -4  -7  -9   12.40    7.10
  -4   7   9   20.20    9.50
   4  -7  -9   -3.20    6.00
  -4   7  -9    1.80    6.20
  -4   7  -9   13.00    7.20
   4  -7  -9   11.80    4.10
   4  -7  -9   15.50   12.50
  -4  -7   9   12.80    5.80
   0  -8  -9    5.00    7.60
   0   8  -9   -5.70    3.70
   0  -8  -9    3.10    5.20
   0  -8  -9   15.30   11.60
   0  -8   9   10.30    5.30
  -1  -8  -9    2.30    4.90
  -1  -8  -9   10.70   10.70
   1   8  -9    7.40    4.90
   1  -8   9   11.90    4.90
   1  -8  -9   11.20   10.90
   1  -8  -9    7.30    5.10
  -1   8  -9   18.10    7.10
  -1  -8   9    4.50    4.40
  -1   8  -9   -0.20    4.70
   1  -8  -9    4.10    7.20
   2   8  -9   -0.20    4.00
  -2  -8  -9   -0.20    4.70
  -2  -8  -9    5.20   10.50
  -2  -8   9    5.90    5.10
  -2   8  -9    0.50    4.80
   2  -8  -9   -2.20   10.50
  -2   8  -9   -0.90    6.70
   2  -8  -9   -9.30    6.90
   2  -8  -9    2.40    4.30
  -3  -8  -9    3.50    5.00
  -3  -8  -9   19.40   12.00
   3   8  -9    5.90    4.80
  -3   8  -9   12.30    7.00
  -3  -8   9   -2.90    4.80
   3  -8  -9   -1.60    4.70
   3  -8  -9    0.90    6.20
  -3   8  -9   -3.10    5.20
   3  -8  -9    2.40   10.70
   0   9  -9   58.39   10.50
   0  -9  -9   60.49   10.80
   0  -9   9   58.69    9.70
   0  -9  -9   78.29   25.80
   1  -9   9   20.50    5.90
  -1  -9  -9   35.60   16.90
  -1  -9  -9   19.20   10.80
   1   9  -9   17.60    6.50
   1  -9  -9   17.00   13.50
  -1   9  -9   20.90    7.10
   1  -9  -9   16.20    6.10
  -1  -9   9   16.70    6.20
  -2  -9  -9   54.79   17.40
   2   9  -9   47.40   10.30
  -2  -9  -9   47.70   10.50
   2  -9  -9   46.30   10.30
   2  -9  -9   53.09   17.60
   2  -9  -9   47.40    8.10
  -2  -9   9   56.89   10.80
  -2   9  -9   77.89   11.60
   0   0 -10   12.30    6.60
   0   0 -10   16.30    7.40
   0   0  10   18.60    5.80
   0   0  10    8.00    5.90
  -1   0 -10  111.59   20.90
   1   0 -10   97.89   24.40
  -1   0 -10  103.89   14.10
  -1   0  10  101.39   13.10
   1   0  10  121.29   15.70
   1   0 -10   77.89   13.70
   2   0 -10    5.60    6.10
   2   0 -10    1.40    5.50
  -2   0 -10   -1.00    5.50
   2   0  10    3.10    4.80
  -2   0 -10   -0.90    6.00
  -2   0  10   -4.00    5.20
  -2   0  10    1.90    4.30
  -3   0 -10   19.60   10.60
   3   0 -10   41.70   12.10
  -3   0  10   17.90    6.70
  -3   0 -10   20.40    7.30
  -3   0  10   29.80    9.00
   4   0  10   19.70    6.60
  -4   0  10    5.80    5.50
   4   0 -10    4.70    6.00
  -4   0  10    1.50    6.70
  -4   0 -10    7.80    6.20
  -4   0 -10   -8.00    7.60
  -5   0  10   18.70    7.50
   5   0 -10   27.80    9.30
   5   0  10   16.20    7.10
  -5   0 -10    2.20   10.20
  -5   0 -10   16.10   10.10
   0  -1 -10   46.80   13.00
   0   1  10   59.89   13.40
   0   1 -10   56.09   10.60
   0  -1  10   47.70    9.50
   0   1 -10   54.79   13.00
   0  -1  10   67.99   13.60
  -1  -1 -10    7.70    5.90
  -1  -1 -10    2.00    7.30
   1  -1  10   13.80    6.30
   1  -1 -10   17.00    6.80
  -1  -1  10    3.90    5.20
   1   1  10   15.60    7.70
  -1   1 -10   13.70    7.60
  -1   1 -10    3.50    5.90
  -2   1  10   42.50   10.80
  -2  -1 -10   11.40    6.60
  -2   1  10   24.70    7.00
   2   1 -10   32.20    9.70
   2  -1  10   47.00   10.00
   2   1 -10    7.30    7.00
  -2  -1 -10    4.80    7.30
  -2   1 -10   28.30    7.80
   2  -1 -10   18.10    7.80
  -2   1 -10   38.50   12.00
  -2  -1  10   13.30    5.90
  -2  -1  10   11.90    7.20
   2   1  10   44.20   12.40
   2  -1 -10   39.10   10.60
  -3   1  10   10.40    6.10
  -3  -1 -10    4.50    6.30
   3  -1  10    9.90    6.10
  -3   1  10    9.10    5.80
   3   1 -10    4.50    5.80
  -3  -1 -10   22.80   11.30
  -3  -1  10   -0.20    7.00
   3  -1 -10    3.00    6.10
   3   1  10    1.90    6.30
  -3  -1  10   12.80    5.60
  -3   1 -10    1.00    7.00
  -3   1 -10    8.50    6.50
   3  -1 -10    4.70    5.80
   4  -1  10   19.20    6.90
  -4   1  10    8.40    5.90
   4   1 -10   10.60    6.80
  -4   1  10    8.00    7.20
   4   1 -10   24.30    9.50
  -4  -1 -10   17.80    6.80
  -4  -1 -10   29.60   14.10
  -4  -1  10   18.10    7.00
   4   1  10   18.30    8.30
   4  -1 -10   16.50    8.40
  -4  -1  10   30.90    8.80
   4  -1 -10   39.50   11.00
  -4   1 -10   15.00   10.10
  -4   1 -10    8.30    6.80
  -5   1  10   -4.30    8.00
  -5  -1 -10   -6.20    5.70
  -5  -1 -10   -1.00   10.30
   5  -1  10   14.80    5.70
   5   1 -10    0.60    6.70
  -5   1  10   10.70    6.90
   5   1 -10   -3.40    6.20
   5  -1 -10    9.50    6.00
   5  -1 -10    7.70    7.50
  -5  -1  10   -6.90    5.20
  -5   1 -10    3.30    6.60
   5   1  10   12.00    7.60
  -5   1 -10   10.70    9.30
   0  -2  10  247.88   25.50
   0  -2  10  302.37   23.40
   0   2 -10  257.07   24.80
   0   2 -10  303.47   28.20
   1  -2  10  125.99   15.70
  -1   2  10  122.89   13.70
   1   2 -10   74.49   16.40
   1   2  10   72.99   14.70
   1  -2 -10   94.89   19.20
  -1   2 -10  112.89   16.20
   1  -2 -10  118.49   14.60
  -1   2 -10  124.99   15.30
   2  -2  10  288.37   24.10
  -2   2  10  273.97   25.20
  -2   2  10  218.68   21.00
  -2  -2 -10  201.58   21.70
   2  -2 -10  278.97   24.00
  -2   2 -10  300.17   26.70
  -2  -2  10  186.48   21.30
  -2   2 -10  278.87   22.80
   2  -2 -10  279.67   28.90
   3  -2  10   81.79   12.00
  -3   2  10   66.59   11.80
  -3   2  10   40.40   10.60
  -3  -2 -10   84.69   12.10
   3   2 -10   63.39   12.10
  -3  -2 -10   34.40   13.80
   3  -2 -10   80.89   17.80
  -3  -2  10   65.59   11.50
   3   2  10   33.30   10.40
  -3   2 -10   71.79   11.60
  -3  -2  10   56.89   13.80
  -3   2 -10   50.69   13.60
  -4   2  10  122.09   14.90
  -4   2  10   87.69   15.20
   4  -2  10   97.89   13.20
  -4  -2 -10  109.49   14.30
   4   2 -10  123.59   15.10
  -4  -2 -10   97.49   20.70
  -4   2 -10   79.09   16.30
  -4  -2  10  113.49   17.00
  -4  -2  10   90.79   13.10
   4  -2 -10   86.29   16.60
  -4   2 -10  120.69   14.60
   4  -2 -10  131.69   14.70
  -5  -2 -10   22.70   14.40
  -5   2  10   17.90    7.40
  -5  -2 -10   18.90    7.10
   5   2 -10   32.90    8.40
   5   2 -10   15.90    8.00
  -5   2  10    9.20    8.30
   5  -2 -10   34.50    7.50
  -5   2 -10   30.70   11.10
  -5   2 -10   29.50    8.30
   5  -2 -10   41.60   11.70
   0   3 -10   10.80    8.10
   0  -3  10    5.30    6.20
   0  -3 -10   14.00    8.40
   0   3 -10   28.00    8.70
   0  -3  10   20.70    6.20
  -1   3  10    1.50    6.50
  -1  -3 -10   -0.90    7.30
   1   3 -10    6.80    6.90
   1  -3  10   11.40    4.40
   1  -3  10    8.70    5.70
   1  -3 -10   17.10    9.50
  -1  -3  10   -4.30    3.80
   1  -3 -10    6.70    6.20
  -1   3 -10    6.10    5.90
  -1   3 -10   22.80    7.70
  -2  -3 -10   11.90   10.10
   2   3 -10   19.20    7.90
  -2   3  10   36.80   10.30
  -2  -3 -10   18.60    7.60
   2   3 -10    9.30    7.40
  -2   3  10   13.40    5.60
   2  -3  10   14.30    6.50
  -2   3 -10   20.30    7.70
  -2  -3  10   19.50    6.50
   2  -3 -10    6.30    9.20
  -2   3 -10   14.70    6.80
   2  -3 -10   28.30    8.70
  -3   3  10    3.50    6.50
   3   3 -10   -6.20    4.70
   3  -3  10   -6.30    4.40
   3   3 -10    9.00    7.00
  -3  -3 -10    8.50   11.20
  -3   3  10   12.60    5.40
  -3  -3  10    2.50    5.70
  -3   3 -10    1.90    6.60
   3  -3 -10    3.20    5.90
   3  -3 -10    8.70    8.90
  -3   3 -10   12.90    6.60
  -3  -3  10    6.50    5.10
   4  -3  10    7.40    5.40
  -4   3  10    6.00    5.40
   4   3 -10   15.90    8.60
   4   3 -10    9.80    7.00
  -4  -3 -10   10.80   12.40
  -4  -3 -10   19.20    6.60
  -4   3  10   11.70    7.70
   4  -3 -10    3.50    6.00
  -4  -3  10   11.20    5.50
  -4   3 -10   25.10    7.20
   4  -3 -10    7.80    9.00
  -4   3 -10   -4.80    7.10
   5   3 -10   -1.90    7.30
  -5   3  10   -3.80    7.90
  -5  -3 -10    9.00   11.80
   5   3 -10   -6.90    6.00
   5  -3  10   -3.10    3.80
  -5   3  10    3.50    5.50
   5  -3 -10    6.10    9.10
  -5   3 -10   16.40    8.50
   5   3  10    4.90    9.00
  -5   3 -10    1.90    6.10
   5  -3 -10    4.30    5.40
  -5  -3  10    6.80    5.10
   0   4 -10    6.90    5.90
   0  -4 -10    6.60    9.50
   0  -4  10    8.30    7.00
   0  -4  10    8.90    5.00
   0   4 -10   15.20    6.70
   1  -4  10    7.00    4.10
  -1   4  10    3.90    6.20
  -1  -4 -10   12.80    9.40
   1  -4  10    0.30    5.20
   1   4 -10    2.80    4.70
  -1  -4  10    0.70    4.60
  -1   4 -10   -4.30    5.70
   1  -4 -10   -7.10    7.00
  -1   4 -10   -0.90    5.00
   1   4  10   -4.90    6.60
   2   4 -10   36.00   10.00
  -2  -4 -10   19.40   13.40
   2  -4  10   12.40    6.40
   2   4 -10   23.10    7.70
  -2  -4 -10   24.20    8.40
  -2   4  10   27.90    9.90
  -2   4 -10   42.30    9.70
  -2   4 -10   17.70    7.80
   2   4  10   23.30    9.40
  -2  -4  10   31.70    8.20
   2  -4 -10    5.50    8.60
  -3  -4 -10   -3.00    4.90
  -3  -4 -10    4.10   10.40
   3   4 -10   -2.00    6.10
   3   4 -10    5.80    4.90
  -3   4  10    3.50    7.10
  -3   4  10    2.50    4.20
   3  -4  10    3.20    4.50
  -3  -4  10   -0.20    3.80
  -3  -4  10    9.30    7.70
  -3   4 -10    6.50    6.50
  -3   4 -10    5.30    6.20
   3  -4 -10    5.10    9.20
   3  -4 -10    6.20    5.70
   3   4  10    0.20    6.70
   4  -4  10    8.00    5.10
  -4  -4 -10   19.50   12.50
  -4   4  10   26.80    8.60
   4   4 -10   10.40    6.70
  -4   4  10    8.50    5.80
  -4   4 -10    3.20    7.10
  -4   4 -10    5.10    6.70
   4  -4 -10   14.70   10.30
   4  -4 -10    3.70    5.90
   4   4  10    8.70    8.30
  -4  -4  10    3.60    5.00
   0   5 -10   63.09   12.40
   0  -5 -10   50.59   15.70
   0   5 -10   87.69   13.20
   0  -5  10   42.60    9.10
   1   5 -10   42.60   10.30
   1   5 -10   46.50   10.10
   1  -5  10   33.90    8.70
   1  -5  10   48.90    7.90
  -1   5  10   16.10   10.00
  -1  -5 -10   40.30   16.00
  -1   5 -10   27.80    8.30
   1   5  10   39.60   11.00
  -1  -5  10   32.50   10.00
   1  -5 -10   33.30    9.50
  -1  -5  10   22.80    7.30
   1  -5 -10   36.60   15.60
  -1   5 -10   16.60    7.70
   2   5 -10   69.49   13.30
  -2  -5 -10   50.79   10.20
  -2   5  10   55.59   13.00
   2   5 -10   48.60   10.90
   2  -5  10   58.69   11.20
  -2  -5 -10   69.29   20.20
   2  -5 -10   51.09   15.30
  -2  -5  10   64.59   13.30
   2   5  10   63.19   13.40
  -2   5 -10   64.09   12.10
  -2  -5  10   53.09   10.50
  -2   5 -10   33.50    9.70
  -3   5  10   29.70   10.10
   3  -5  10   29.50    7.30
   3   5 -10   13.50    7.30
  -3  -5 -10    5.60   11.90
   3  -5 -10   -1.60   10.00
  -3   5 -10   19.60    8.30
  -3   5 -10   33.90    9.30
   3  -5 -10   30.40    9.70
   3   5  10   24.30    9.40
  -3  -5  10   18.10    6.50
  -4   5  10   27.70    9.80
   4  -5  10   38.60    6.80
  -4  -5 -10   35.30   16.50
   4   5 -10   30.60   11.40
   4  -5 -10   39.40   13.40
  -4  -5  10   21.90    8.10
  -4   5 -10   37.90   11.10
  -4   5 -10   36.90   10.40
   4  -5 -10   18.50    7.30
   0  -6 -10   54.69   16.50
   0   6 -10   63.19   11.90
   0   6 -10   73.19   12.80
   0  -6  10   71.19   16.10
   0   6  10   76.29   15.60
   1  -6  10  309.57   22.20
  -1  -6 -10  262.67   35.40
   1   6 -10  337.27   27.40
  -1  -6 -10  237.28   25.00
   1   6 -10  317.97   27.50
  -1   6 -10  281.37   29.50
  -1  -6  10  306.97   27.30
   1  -6 -10  314.57   26.80
  -1  -6  10  302.37   24.60
   1   6  10  301.77   29.50
  -1   6 -10  248.48   25.50
   1  -6 -10  362.86   38.50
   2  -6  10   34.20    8.30
   2   6 -10   33.00    8.20
  -2  -6 -10   46.40   16.10
  -2   6  10   25.00   10.50
   2  -6 -10   56.79   10.30
  -2   6 -10   23.80    9.80
   2  -6 -10   32.00   14.20
  -2  -6  10   31.40    7.80
  -2   6 -10   23.20    8.50
   3   6 -10  228.38   22.00
  -3   6  10  200.18   23.30
   3  -6  10  205.68   18.80
  -3  -6 -10  233.78   33.70
  -3  -6  10  226.88   20.00
   3  -6 -10  184.78   29.00
  -3   6 -10  257.77   21.90
   4   6 -10   26.60    8.30
  -4  -6 -10   38.90    9.50
  -4  -6 -10   37.70   20.10
   4  -6 -10   25.40    5.70
  -4  -6  10   25.90    7.50
  -4   6 -10   35.40    9.60
  -4   6 -10   19.80    9.00
   4  -6 -10   34.80   14.50
   4  -6 -10   25.50    7.30
   0  -7  10    5.00    5.00
   0  -7  10    2.10    6.20
   0  -7 -10    8.60   10.70
   0   7 -10   -2.10    4.10
  -1  -7 -10   -0.20   13.30
   1  -7  10    0.60    4.00
   1  -7  10   14.70    7.10
   1   7 -10    4.10    5.00
  -1  -7  10    4.10    5.00
  -1   7 -10    1.40    7.40
   1  -7 -10    6.50    7.30
  -1   7 -10    4.00    5.50
   1  -7 -10   -3.90   10.00
   2   7 -10   -6.60    3.70
  -2  -7 -10   -8.10   10.50
  -2   7 -10    5.40    5.80
  -2   7 -10    4.60    7.70
   2  -7 -10   -0.50    4.80
   2  -7 -10    5.60    6.40
  -2  -7  10    4.10    4.50
   2  -7 -10    3.00   13.20
  -3  -7 -10   -3.20    5.80
   3   7 -10    0.00    4.80
  -3  -7 -10    1.30   21.90
  -3   7 -10   -2.40    6.60
  -3   7 -10    8.70    7.90
   3  -7 -10    6.80    4.70
  -3  -7  10    4.30    5.40
   3  -7 -10    3.70   11.30
   0   8 -10   40.50   10.30
   0  -8 -10   38.40    9.20
   0  -8  10   24.70    7.60
   0  -8 -10   26.60   16.80
   1  -8  10   58.49    9.00
  -1  -8 -10   51.19   11.20
   1   8 -10   63.89   11.70
  -1  -8  10   42.20    8.60
   1  -8 -10   47.00    9.30
  -1   8 -10   55.19   11.30
   1  -8 -10   94.89   22.10
  -2  -8 -10   28.50    8.40
  -2  -8 -10   19.40   16.20
   2   8 -10   32.80    8.80
   2  -8 -10   -4.20   13.70
   2  -8 -10   25.70    7.20
  -2  -8  10   31.70    7.80
  -2   8 -10   24.30    9.00
   2  -8 -10   14.10    8.00
   0   9 -10    6.50    5.60
   0   0 -11  259.47   26.70
  -1   0 -11  251.77   21.90
   1   0 -11  235.08   24.90
  -1   0 -11  252.77   26.30
  -1   0  11  243.68   20.80
   1   0 -11  142.99   29.20
   2   0 -11  207.88   22.70
  -2   0 -11  195.68   25.40
   2   0 -11  169.18   20.00
  -2   0 -11  189.58   20.00
  -2   0  11  167.38   18.50
  -2   0  11  217.48   22.70
   2   0  11  202.68   23.30
  -3   0  11  108.89   14.50
   3   0 -11   68.19   15.90
  -3   0 -11  105.69   15.70
  -3   0  11  151.68   18.50
  -3   0 -11   73.49   17.90
  -4   0 -11   67.69   16.90
   4   0 -11  119.99   15.90
   4   0 -11  113.09   17.40
   0   1 -11    9.10    5.80
   0   1 -11   -2.60    4.30
   0  -1  11    4.80    5.20
   0  -1 -11    8.40    6.10
  -1  -1 -11   26.70   10.20
  -1  -1 -11   45.70   10.30
   1  -1  11   48.20   12.60
  -1   1  11   43.70    8.40
   1   1 -11   44.30   12.10
   1  -1 -11   38.10   12.20
  -1   1 -11   54.69   13.90
  -1   1 -11   42.50    9.20
  -1  -1  11   41.70    9.50
   1  -1 -11   47.80   15.00
  -2   1  11    3.80    4.50
  -2   1  11   -2.20    5.00
   2  -1  11    6.20    5.40
  -2  -1 -11   -0.90    5.80
   2   1 -11   -7.50    4.40
  -2  -1 -11   -3.10    7.80
  -2   1 -11   -0.70    5.80
  -2   1 -11    8.10    6.00
   2  -1 -11    0.40    5.50
   2  -1 -11   -2.60    5.90
  -2  -1  11   -4.20    4.10
  -2  -1  11    5.90    5.40
  -3   1  11   19.70    8.90
  -3  -1 -11   11.70    9.30
   3  -1  11   31.20    8.10
   3   1 -11   19.70    8.90
  -3   1  11   22.30    7.50
   3   1 -11   22.00    9.20
  -3  -1 -11   18.80   10.30
   3  -1 -11   28.90    9.90
  -3  -1  11   12.50    8.10
  -3   1 -11   37.90   18.30
  -3   1 -11   18.20    8.00
  -3  -1  11   10.50    6.90
  -4   1  11   -5.00    5.00
   4   1 -11    1.00    7.10
   4  -1  11    0.00    5.80
   4   1 -11    4.90    7.00
  -4  -1 -11    4.60   10.40
  -4  -1 -11   15.30    7.70
   4  -1 -11    3.70    6.50
  -4  -1  11    4.30    6.50
   4   1  11   -0.20   12.40
   0   2 -11  160.68   19.70
   0   2 -11  173.38   19.10
   0   2  11  134.19   29.20
   0  -2 -11  158.58   22.50
   1  -2  11   46.20   13.10
  -1  -2 -11   49.30   12.20
   1   2 -11   39.20   10.50
  -1  -2 -11   46.20   14.60
  -1   2 -11   37.50   10.20
   1   2  11   20.50    9.70
  -1  -2  11   40.10    9.50
   1  -2 -11   65.89   11.50
  -1   2 -11   57.89   11.90
   1  -2 -11   43.90   12.50
  -1  -2  11   39.70   12.10
   2   2 -11   51.29   11.80
  -2  -2 -11   27.80   12.70
  -2  -2 -11   33.70   10.80
   2   2 -11   82.29   15.10
  -2  -2  11   66.09   12.50
   2   2  11   98.39   16.50
  -3  -2 -11   26.20    9.00
  -3   2  11   17.00    6.60
   3  -2  11   28.00    8.30
   3   2 -11   19.50    8.80
  -3   2  11   23.30    8.70
  -3  -2 -11   19.30   12.80
   3   2 -11   20.50    9.30
  -3   2 -11   26.00    8.30
  -3   2 -11   45.70   13.90
  -3  -2  11    7.50    7.50
   3  -2 -11   44.10   13.20
  -3  -2  11   17.70    7.80
   3   2  11   10.60   11.90
   3  -2 -11   17.10    9.60
   4   2 -11   32.90   10.10
   4  -2  11   74.19   11.60
  -4   2  11   56.39   10.20
  -4  -2 -11   62.19   14.70
   4   2 -11   50.89   12.10
  -4  -2 -11   86.79   19.70
   4  -2 -11   65.09   12.30
   4   2  11   52.79   12.10
  -4   2 -11   52.49   13.00
  -4  -2  11   52.59   11.00
   4  -2 -11   69.59   14.90
   0  -3 -11   20.20   11.90
   0   3 -11    9.00    5.90
   0  -3  11    4.60    5.10
   0   3 -11   24.50   12.00
   0  -3  11   15.50   11.70
   1   3 -11  230.48   24.60
  -1  -3 -11  245.58   23.50
  -1  -3 -11  173.28   26.30
  -1  -3  11  239.48   21.90
   1   3  11  280.47   32.50
  -1  -3  11  211.18   23.40
  -2  -3 -11   19.20    8.60
  -2   3  11   35.20    9.70
   2  -3  11   13.10    7.30
  -2   3  11   30.50    7.30
   2   3 -11   27.20    9.60
   2   3 -11   18.20    8.90
  -2  -3 -11   18.80   10.50
   2   3  11    5.90    9.00
   2  -3 -11   11.70    9.30
  -2  -3  11   12.10    7.20
  -2  -3  11   20.00    7.80
  -2   3 -11   31.20    9.10
  -2   3 -11   24.70    7.80
  -3  -3 -11  232.48   22.90
  -3   3  11  239.98   24.40
   3   3 -11  265.17   27.80
  -3  -3 -11  211.08   31.00
   3  -3  11  220.98   21.30
  -3   3  11  290.57   22.30
  -3   3 -11  274.07   26.20
   3   3  11  173.68   24.00
   3  -3 -11  235.78   25.30
  -3  -3  11  265.47   23.60
   3  -3 -11  266.77   29.10
  -4  -3 -11    9.30   12.10
  -4   3  11    3.60    4.90
   4  -3  11   14.00    6.70
   4   3 -11    6.00    8.00
   4  -3 -11   13.00    9.20
  -4   3 -11   -5.00    8.80
  -4   3 -11    5.70   11.10
   4   3  11    8.50    9.40
   0   4 -11   11.20    7.50
   0  -4 -11   28.20    9.00
   0  -4  11   10.20    5.50
   0   4  11   18.00    9.50
   0  -4 -11   14.20    9.90
  -1  -4 -11   68.09   19.90
   1   4 -11   81.49   15.30
   1   4 -11   70.29   14.10
   1   4  11   99.59   18.20
   1  -4 -11  124.99   24.60
  -1  -4  11   91.59   16.60
   2   4 -11   19.40    9.20
  -2   4  11   15.00    7.40
   2   4 -11   20.60    9.20
  -2  -4 -11    7.30   10.70
   2  -4  11   10.50    7.00
  -2  -4 -11    9.90    7.40
  -2  -4  11    5.20    6.10
   2  -4 -11   19.60   13.60
  -2   4 -11   16.80    8.00
  -2  -4  11   12.20    7.90
   2   4  11    9.70    8.10
  -2   4 -11   13.90    6.80
   2  -4 -11   28.00    8.40
  -3  -4 -11  104.69   23.50
   3   4 -11  107.59   16.20
   3   4  11   74.49   16.50
  -3   4 -11   82.89   17.10
  -3  -4  11  106.29   14.20
   3  -4 -11   82.49   17.70
  -3   4 -11   93.09   19.20
  -4  -4 -11    1.20   12.50
   4   4 -11   13.10    8.60
   4  -4  11   14.70    5.80
  -4   4 -11  -10.50    7.50
   4  -4 -11    4.00    9.60
  -4  -4  11   18.60    7.00
   0  -5  11   14.70    8.10
   0  -5  11   10.20    5.30
   0   5  11    6.50    8.90
   0   5 -11   19.30    8.30
   0   5 -11    6.40    7.10
   0  -5 -11    1.70   10.00
   0  -5 -11    4.40    7.10
  -1   5  11    0.70    7.40
   1  -5  11   -4.80    3.20
  -1  -5 -11    0.30    9.80
   1   5 -11    0.80   10.50
   1  -5  11   -7.00    6.30
   1   5 -11   -0.20    5.00
  -1  -5  11    6.00    6.50
   1  -5 -11   -7.70    9.50
   1   5  11   17.70   10.90
   1  -5 -11   -0.60    6.00
  -1   5 -11    3.70    7.40
  -1  -5  11    3.40    5.30
  -1   5 -11    0.50    5.90
  -2  -5 -11    4.40   12.40
   2   5 -11    3.60    5.50
   2  -5 -11  -14.10    9.60
   2  -5 -11    8.60    6.90
  -2  -5  11   11.80    6.40
  -2   5 -11    8.10    8.10
  -2   5 -11   -2.90    5.60
   3  -5  11    0.00    5.30
  -3  -5 -11   11.80   13.60
   3   5 -11   -3.30    5.70
  -3   5 -11    2.90    6.10
   3  -5 -11   -0.20    9.70
  -3   5 -11    3.70    8.00
  -3  -5  11   -7.80    5.10
   3  -5 -11   -4.00    6.90
   0  -6  11  -10.20    6.50
   0   6 -11    1.50    5.60
   0  -6  11   -3.70    4.20
   0  -6 -11    2.10   10.40
   1   6 -11   17.60    6.90
  -1  -6 -11   -2.30   11.40
   1  -6  11   13.10    7.40
   1  -6  11   10.10    4.70
   1  -6 -11   -7.70    8.40
  -1   6 -11    3.60    6.40
  -1   6 -11    3.10    9.30
  -1  -6  11   13.20    6.30
   1  -6 -11   19.00   15.40
   2  -6  11   -1.60    7.60
  -2  -6 -11    5.90   12.20
   2   6 -11    8.00    6.10
   2  -6 -11   13.50   12.10
  -2   6 -11   -0.20    5.90
  -2   6 -11    8.60    8.60
   2  -6 -11   -4.90    6.20
  -2  -6  11   -3.50    5.40
   3   6 -11   10.40    6.50
  -3  -6 -11   39.90   32.60
   3  -6 -11    2.10   14.10
  -3   6 -11   -9.30    8.40
  -3  -6  11    2.50    5.60
   3  -6 -11   -0.80    7.30
  -3   6 -11   17.60    7.10
   0   7 -11   46.10   11.60
   0  -7 -11   48.30   17.00
   1  -7  11  179.48   14.50
   1  -7  11  131.19   18.10
   1   7 -11  173.08   18.90
   1  -7 -11  160.28   32.10
  -1  -7  11  129.59   16.30
   2  -7  11   26.10    9.00
  -2  -7 -11   15.90   15.20
   2   7 -11   24.80    8.80
   2  -7 -11   36.00   16.80
  -2   7 -11   30.10    9.90
  -2  -7  11   38.10   10.20
   0  -8 -11   14.10    7.40
   0   8 -11   15.50    8.00
   0  -8  11    9.30    6.50
   0  -8 -11    1.60   14.30
   0   0 -12   74.09   16.60
   0   0  12   63.39   12.20
   0   0 -12   76.79   12.90
  -1   0  12  432.26   34.50
   1   0 -12  425.16   33.30
   1   0  12  442.16   34.30
   1   0 -12  394.66   35.70
  -1   0 -12  467.15   38.80
  -1   0 -12  433.56   32.80
  -1   0  12  406.16   30.60
  -2   0  12   61.09   13.30
  -2   0 -12   78.59   12.70
   2   0 -12   63.39   14.10
  -2   0  12   85.49   12.10
   2   0  12   81.59   14.80
  -2   0 -12   56.89   15.30
   2   0 -12   76.29   13.70
  -3   0  12  231.08   22.10
  -3   0 -12  191.68   26.90
   3   0 -12  170.18   25.20
   3   0 -12  264.17   26.20
  -3   0 -12  240.98   23.00
   3   0  12  302.07   24.00
   4   0  12   26.80    8.40
   4   0 -12   22.10    9.30
  -4   0 -12   -0.20   10.80
  -4   0  12   19.40    8.30
   0  -1  12    9.10    4.60
   0   1 -12   10.50    6.50
   0  -1 -12    0.30    6.00
   0   1 -12    3.40    6.10
   0  -1  12    4.80    6.30
   0   1  12    3.30    6.00
   0  -1 -12    3.20    6.10
   1   1 -12   14.10    6.70
   1  -1  12    1.60    6.20
   1   1 -12   -4.50    6.40
  -1  -1 -12    9.10    6.80
  -1   1  12    0.60    4.70
  -1   1  12    3.70    5.90
  -1  -1 -12    7.40    7.40
   1   1  12    2.10    5.80
  -1  -1  12    7.60    4.60
   1  -1 -12    9.00    6.60
  -1   1 -12    6.90    6.70
  -1  -1  12   -3.40    5.70
  -1   1 -12    3.20    5.70
   1  -1 -12    9.20    6.50
   2   1 -12    9.80    7.60
  -2   1  12    2.90    4.20
  -2  -1 -12    8.40    8.80
  -2   1  12   -2.60    7.70
  -2  -1 -12   -7.40    6.70
   2   1 -12   -4.90    6.20
  -2   1 -12  -13.10    6.10
   2   1  12    1.20    5.90
  -2  -1  12    6.60    5.20
   2  -1 -12    8.10    7.30
  -2   1 -12    1.50    6.40
   2  -1 -12    4.40    7.00
   3  -1  12    2.20    6.50
   3   1 -12    1.80    6.00
  -3  -1 -12    8.30   10.10
  -3   1  12    6.90    5.30
  -3   1 -12  -15.80    6.60
  -3  -1  12    5.50    5.70
   3  -1 -12   -6.50    6.10
  -3   1 -12   13.10    8.80
   3  -1 -12    0.30    7.60
   3   1  12    4.80    6.60
  -4  -1 -12   19.30   12.10
   4  -1  12    0.70    6.00
  -4   1  12    3.30    5.80
   4   1  12   -1.50    7.30
  -4   1 -12    1.40    9.70
   4  -1 -12    4.90    7.90
  -4  -1  12    1.90    6.50
   4  -1 -12    3.10    9.40
   0  -2 -12    2.60    5.90
   0   2 -12    0.30    5.50
   0   2 -12   -3.30    6.70
   0  -2  12   12.60    7.90
   0  -2  12    1.40    4.00
   0  -2 -12   -7.80    6.70
   0   2  12    6.50    7.00
   1  -2  12    7.40    6.80
  -1  -2 -12   12.50   10.00
  -1  -2 -12    3.10    6.70
  -1   2  12    9.00    6.20
   1   2 -12   13.00    7.90
   1   2 -12   14.90    8.60
   1  -2 -12    5.30    5.80
  -1  -2  12    7.10    6.60
  -1   2 -12    5.10    5.50
   1  -2 -12    0.10    6.70
   1   2  12    4.80    6.00
  -1  -2  12   -3.90    4.20
  -1   2 -12    4.00    6.80
  -2  -2 -12    1.60    7.90
   2   2 -12   -1.20    6.20
  -2  -2 -12   -5.30    7.90
   2  -2  12   -1.60    6.60
  -2   2  12    1.00    4.30
  -2   2 -12    2.70    5.90
  -2  -2  12   -0.50    5.70
   2   2  12    0.70    7.40
  -2   2 -12   -5.50    5.90
   2  -2 -12    0.80    6.90
   2  -2 -12   -1.30    7.40
   3  -2  12   -0.90    6.00
  -3   2  12   -5.30    4.70
  -3  -2 -12  -16.60    9.50
   3   2 -12    8.10    6.70
  -3   2 -12    0.70    6.30
  -3  -2  12    1.90    5.50
   3  -2 -12   -9.00    7.30
   3   2  12   -6.90    7.40
   3  -2 -12    7.40    8.50
  -3   2 -12   -6.80    7.60
   4   2 -12   -1.50    6.40
  -4  -2 -12  -13.00   12.90
  -4   2  12    6.30    5.50
   4  -2 -12    7.80    7.50
   4  -2 -12   -2.90    8.30
  -4   2 -12    0.60    9.90
  -4   2 -12   -8.10    8.80
  -4  -2  12   12.10    7.60
   0   3  12   57.99   13.10
   0   3 -12  102.59   16.00
   0  -3 -12   76.89   13.30
   0  -3 -12   58.59   16.60
   0  -3  12   80.29   13.90
   0   3 -12  107.69   18.50
   0  -3  12   85.39   10.90
  -1  -3 -12   22.30   13.60
   1   3 -12   19.00    8.10
   1  -3  12   31.20    9.50
   1   3  12    5.80    8.30
  -1  -3  12   15.80    6.30
  -1   3 -12   31.50   10.10
  -1  -3  12   12.70    8.20
   1  -3 -12   11.60    7.10
   1  -3 -12   32.50   11.40
  -1   3 -12   24.40    9.00
   2   3 -12   50.89   14.60
  -2  -3 -12   24.80   13.80
   2  -3 -12   53.19   11.30
  -2   3 -12   63.49   12.60
   2  -3 -12   58.69   16.30
  -2   3 -12   78.39   13.20
  -3  -3 -12    5.40   12.70
   3  -3  12   12.70    8.40
   3   3 -12   -1.40    6.80
  -3   3  12   14.50    6.50
  -3   3 -12   18.60    7.90
  -3  -3  12   15.90    9.40
  -3   3 -12   16.30    8.80
   3  -3 -12    8.60    8.20
   3  -3 -12   15.00    9.70
   0  -4 -12   71.59   19.90
   0   4 -12  134.49   17.60
   0  -4  12   48.90   12.70
   0  -4  12   90.69   11.60
  -1  -4 -12   37.20   15.50
   1   4 -12   67.79   15.80
   1  -4  12   72.89   13.80
  -1  -4  12   81.39   13.00
  -1   4 -12  113.39   16.00
  -1   4 -12  140.29   19.20
   2  -4  12   27.30    9.10
  -2  -4 -12   21.00   13.90
   2   4 -12   21.50    8.90
  -2   4 -12   69.19   12.80
   2  -4 -12   33.60   13.50
  -2   4 -12   47.50   10.90
  -2  -4  12   22.60    8.00
   3  -4  12   43.00   10.40
  -3  -4 -12   27.80   16.60
  -3   4 -12   81.39   14.00
   3  -4 -12   69.99   12.60
   3  -4 -12   96.69   21.50
  -3   4 -12   87.69   15.60
  -3  -4  12   67.99   12.70
   0   5 -12   12.00    7.90
   0  -5  12   40.80    8.20
   0  -5 -12   18.50   13.00
   1   5 -12    6.70    6.20
   1  -5  12   -7.20    7.00
  -1  -5 -12   10.40   11.20
  -1   5 -12    1.10    6.30
  -1  -5  12   -9.20    4.90
   1  -5 -12   10.20   11.80
   2  -5  12   11.80    7.70
  -2  -5 -12    9.40   13.80
   2  -5 -12   23.50   12.20
  -2  -5  12   17.80    8.10
  -3  -5 -12    0.70   14.20
   3   5 -12  -12.20    6.10
  -3  -5  12  -10.20    6.10
  -3   5 -12    0.50    6.80
   0  -6  12    5.60    5.40
   0   6 -12   11.70    7.20
   1   6 -12   32.00   12.40
  -1  -6 -12   45.70   18.70
  -1   6 -12   23.90    9.00
  -1  -6  12    5.20    6.30
   2  -6  12    5.50    7.70
   2   6 -12    7.50    6.90
  -2  -6 -12   24.50   17.70
  -2   6 -12   14.90    8.30
   2  -6 -12   -0.50   13.00
  -2  -6  12    5.10    8.00
   0  -7  12   38.60    8.40
   0  -7 -12   30.30   16.30
   0   0 -13   -5.30    6.20
  -1   0  13  118.39   13.60
  -1   0 -13  130.49   19.90
   1   0 -13  125.59   18.40
  -2   0  13   12.80    5.50
  -2   0 -13    0.80    7.90
   2   0 -13   -5.90    5.20
  -3   0  13   48.60   10.30
  -3   0 -13   66.09   16.70
   3   0 -13   73.09   15.80
   0  -1 -13   89.29   17.00
   0   1 -13  104.39   18.80
   1   1 -13   -5.60    5.40
   1  -1  13   10.10   10.00
  -1  -1 -13   13.70    9.00
  -1  -1  13    2.20    4.70
  -1   1 -13    6.00    7.10
   1  -1 -13  -11.60    6.60
   2  -1  13   63.89   12.80
  -2  -1 -13   68.09   17.90
   2   1 -13  106.69   16.00
  -2   1  13   87.49   12.00
  -2   1 -13   94.79   17.60
   2  -1 -13   74.39   14.90
  -2  -1  13  105.69   14.00
  -3   1  13    2.20    5.10
  -3  -1 -13   -2.10   10.30
   3   1 -13   -0.10    7.10
   3  -1  13    1.20    7.10
  -3  -1  13   -0.80    5.80
  -3   1 -13    8.30    9.20
   3  -1 -13    9.60    8.40
   0   2 -13   28.60    9.30
   0  -2  13   48.40    8.20
   0  -2 -13   45.40   13.20
   1   2 -13   38.10   11.60
  -1  -2 -13   34.00   12.70
  -1  -2  13   35.90    9.00
   1  -2 -13   51.89   15.60
  -1   2 -13   36.70   10.50
   2   2 -13   30.70   10.30
  -2   2  13   28.00    7.50
  -2  -2 -13   39.80   14.60
   2  -2 -13   12.70   10.30
  -2   2 -13   61.89   13.90
  -2  -2  13   31.10    8.40
   3  -2  13   21.70    8.10
  -3   2  13   41.40    8.70
  -3  -2 -13   18.70   14.50
   3   2 -13   25.00   10.10
   3  -2 -13   33.60   11.40
  -3  -2  13    9.50    7.10
  -3   2 -13   37.30   12.80
   0   3 -13    6.40    6.60
   0  -3 -13    1.20    9.90
   0  -3  13    4.40    4.20
   1   3 -13   13.40    9.00
  -1  -3 -13   29.10   14.50
   1  -3 -13   25.20   11.70
  -1   3 -13   18.80    7.70
  -1  -3  13   13.30    6.90
  -2  -3 -13  -11.30    9.90
   2  -3  13    4.20    7.50
   2   3 -13    6.20    7.10
  -2   3 -13    0.20    6.50
  -2  -3  13   -0.80    6.30
   0   4 -13    8.80    7.40
   0  -4 -13    1.80   14.80
   0  -4  13   -0.70    4.60
   1   4 -13   20.20   10.70
  -1  -4  13   17.80    7.30
  -1   4 -13   30.90    9.70
   2   4 -13    2.50    7.40
  -2  -4 -13    8.20   12.00
  -2   4 -13   15.20    7.90
  -2  -4  13    6.70    7.10
   2  -4 -13   17.60   15.00
   0   5 -13  159.48   20.90
   0  -5  13  160.98   15.40
   0  -5 -13  102.39   24.70
   1   5 -13    5.80    7.50
  -1  -5 -13    4.10   12.20
  -1  -5  13    0.80    5.40
   1  -5 -13  -14.20   10.10
  -1   5 -13   -1.10    6.70
   0   0 -14   14.70   11.40
   1   0 -14    5.40    7.40
  -1   0 -14   10.20    8.70
   2   0 -14   -2.00    6.30
  -2   0 -14    8.90    9.30
  -2   0  14   -3.60    5.20
   0   1 -14    6.90    8.80
   1   1 -14   11.90    6.90
  -1  -1 -14   24.30   15.70
  -1   1 -14   11.60    8.50
   1  -1 -14    3.00    8.80
  -1  -1  14   11.80    6.20
   2   1 -14    6.10    7.00
  -2   1  14   12.30    5.50
  -2  -1  14   -1.00    5.40
  -2   1 -14    7.50    9.10
   2  -1 -14    6.10    7.60
   0  -2 -14  236.48   29.30
   1   2 -14   49.10   11.20
  -1  -2 -14   73.69   19.00
   1  -2 -14   72.99   15.90
  -1   2 -14   49.30   12.10
  -1  -2  14   58.59   11.00
   0  -3  14    4.30    4.80
   0  -3 -14   13.90   13.10
   0   3 -14   17.50    8.50
   1   3 -14   31.50   10.40
  -1  -3 -14   27.90   13.10
   1  -3 -14   20.80   12.20
  -1   3 -14   28.40   10.30
   0   0   0    0.00    0.00

_computing_structure_solution     'SHELXT 2018/2 (Sheldrick, 2018)'
;
_shelx_hkl_checksum              7577
_olex2_submission_special_instructions 'No special instructions were received'
loop_
_space_group_symop_operation_xyz
'x, y, z'
'-x+1/2, -y+1/2, z'
'-x, y+1/2, -z'
'x+1/2, -y, -z'
'-x, -y, -z'
'x-1/2, y-1/2, -z'
'x, -y-1/2, z'
'-x-1/2, y, z'
loop_
_atom_site_label
_atom_site_type_symbol
_atom_site_fract_x
_atom_site_fract_y
_atom_site_fract_z
_atom_site_U_iso_or_equiv
_atom_site_adp_type
_atom_site_occupancy
_atom_site_site_symmetry_order
_atom_site_calc_flag
_atom_site_refinement_flags_posn
_atom_site_refinement_flags_adp
_atom_site_refinement_flags_occupancy
_atom_site_disorder_assembly
_atom_site_disorder_group
Pb1 Pb 0.750000 0.55607(7) 0.82033(7) 0.0357(2) Uani 1 2 d S T P . .
Pb2 Pb 0.250000 0.250000 0.86576(10) 0.0363(3) Uani 1 4 d S T P . .
Pb3 Pb 0.750000 0.250000 0.64357(10) 0.0347(3) Uani 1 4 d S T P . .
Pb4 Pb 0.250000 0.01269(8) 0.61924(6) 0.0359(2) Uani 1 2 d S T P . .
N1 N 0.250000 0.750000 0.914(3) 0.054(7) Uani 1 4 d S T P . .
B1 B 0.750000 0.750000 0.569(3) 0.039(7) Uani 1 4 d S T P . .
O1 O 0.250000 0.639(2) 0.963(2) 0.100(7) Uani 1 2 d S T P . .
O2 O 0.250000 0.750000 0.800(2) 0.080(9) Uani 1 4 d S T P . .
O3 O 1.0015(14) 0.3972(8) 0.7542(7) 0.0325(19) Uani 1 1 d . . . . .
O4 O 0.750000 0.6199(15) 0.6294(14) 0.053(4) Uani 1 2 d S T P . .
O5 O 0.250000 0.250000 0.5512(17) 0.037(4) Uani 1 4 d S T P . .
loop_
_atom_site_aniso_label
_atom_site_aniso_U_11
_atom_site_aniso_U_22
_atom_site_aniso_U_33
_atom_site_aniso_U_23
_atom_site_aniso_U_13
_atom_site_aniso_U_12
Pb1 0.0355(4) 0.0317(4) 0.0399(5) -0.0033(3) 0.000 0.000
Pb2 0.0353(5) 0.0374(5) 0.0363(6) 0.000 0.000 0.000
Pb3 0.0334(5) 0.0334(5) 0.0373(6) 0.000 0.000 0.000
Pb4 0.0347(4) 0.0335(4) 0.0395(5) -0.0027(3) 0.000 0.000
N1 0.047(15) 0.059(18) 0.057(19) 0.000 0.000 0.000
B1 0.037(14) 0.050(18) 0.029(16) 0.000 0.000 0.000
O1 0.13(2) 0.076(15) 0.093(17) 0.007(13) 0.000 0.000
O2 0.15(3) 0.067(16) 0.022(12) 0.000 0.000 0.000
O3 0.038(5) 0.032(4) 0.028(5) 0.000(3) -0.001(3) -0.002(3)
O4 0.078(11) 0.031(7) 0.050(9) 0.019(6) 0.000 0.000
O5 0.042(9) 0.029(9) 0.039(11) 0.000 0.000 0.000
loop_
_atom_type_symbol
_atom_type_description
_atom_type_scat_dispersion_real
_atom_type_scat_dispersion_imag
_atom_type_scat_source
B B 0.0013 0.0007 'International Tables Vol C Tables 4.2.6.8 and 6.1.1.4'
N N 0.0061 0.0033 'International Tables Vol C Tables 4.2.6.8 and 6.1.1.4'
O O 0.0106 0.0060 'International Tables Vol C Tables 4.2.6.8 and 6.1.1.4'
Pb Pb -3.3944 10.1111 'International Tables Vol C Tables 4.2.6.8 and 6.1.1.4'
loop_
_geom_angle_atom_site_label_1
_geom_angle_atom_site_label_2
_geom_angle_atom_site_label_3
_geom_angle
_geom_angle_site_symmetry_1
_geom_angle_site_symmetry_3
_geom_angle_publ_flag
O3 Pb1 Pb1 132.7(2) . 2_665 ?
O3 Pb1 Pb1 132.7(2) 8_755 2_665 ?
O3 Pb1 O3 81.5(4) . 8_755 ?
O3 Pb1 O4 81.9(3) . . ?
O3 Pb1 O4 81.9(4) 8_755 . ?
O4 Pb1 Pb1 74.3(4) . 2_665 ?
Pb4 Pb2 Pb4 77.83(3) . 2 ?
O3 Pb2 Pb4 87.45(19) 8_755 . ?
O3 Pb2 Pb4 38.19(19) 1_455 2 ?
O3 Pb2 Pb4 38.19(19) 8_755 2 ?
O3 Pb2 Pb4 87.45(19) 1_455 . ?
O3 Pb2 Pb4 87.45(19) 2_655 2 ?
O3 Pb2 Pb4 38.19(19) 2_655 . ?
O3 Pb2 Pb4 38.19(19) 7_465 . ?
O3 Pb2 Pb4 87.45(19) 7_465 2 ?
O3 Pb2 O3 74.6(4) 7_465 2_655 ?
O3 Pb2 O3 74.6(4) 8_755 1_455 ?
O3 Pb2 O3 115.5(4) 7_465 8_755 ?
O3 Pb2 O3 72.3(4) 8_755 2_655 ?
O3 Pb2 O3 115.5(4) 1_455 2_655 ?
O3 Pb2 O3 72.3(4) 7_465 1_455 ?
Pb1 Pb3 Pb4 123.23(2) 2_655 2 ?
Pb1 Pb3 Pb4 62.422(13) 2_655 . ?
Pb1 Pb3 Pb4 123.23(2) 2_655 2_655 ?
Pb1 Pb3 Pb4 62.421(13) 2_655 1_655 ?
Pb4 Pb3 Pb4 171.39(4) . 2_655 ?
Pb4 Pb3 Pb4 75.72(2) 2_655 1_655 ?
Pb4 Pb3 Pb4 103.611(19) . 1_655 ?
Pb4 Pb3 Pb4 75.724(19) . 2 ?
Pb4 Pb3 Pb4 103.61(2) 2_655 2 ?
Pb4 Pb3 Pb4 171.39(4) 1_655 2 ?
O3 Pb3 Pb1 38.32(19) 2_655 2_655 ?
O3 Pb3 Pb1 100.71(19) 8_755 2_655 ?
O3 Pb3 Pb1 38.32(19) 7_565 2_655 ?
O3 Pb3 Pb1 100.71(19) . 2_655 ?
O3 Pb3 Pb4 151.89(19) 2_655 2_655 ?
O3 Pb3 Pb4 36.60(19) 2_655 . ?
O3 Pb3 Pb4 85.43(19) 7_565 2_655 ?
O3 Pb3 Pb4 36.60(19) . 2_655 ?
O3 Pb3 Pb4 85.43(19) 2_655 2 ?
O3 Pb3 Pb4 36.60(19) 8_755 2 ?
O3 Pb3 Pb4 99.14(19) . 2 ?
O3 Pb3 Pb4 99.15(19) 7_565 . ?
O3 Pb3 Pb4 151.89(19) 7_565 2 ?
O3 Pb3 Pb4 36.60(19) 7_565 1_655 ?
O3 Pb3 Pb4 85.43(19) . 1_655 ?
O3 Pb3 Pb4 151.89(19) 8_755 1_655 ?
O3 Pb3 Pb4 85.43(19) 8_755 . ?
O3 Pb3 Pb4 99.14(19) 2_655 1_655 ?
O3 Pb3 Pb4 151.89(19) . . ?
O3 Pb3 Pb4 99.14(19) 8_755 2_655 ?
O3 Pb3 O3 75.5(4) 2_655 7_565 ?
O3 Pb3 O3 72.2(4) . 7_565 ?
O3 Pb3 O3 116.3(4) . 2_655 ?
O3 Pb3 O3 75.5(4) . 8_755 ?
O3 Pb3 O3 72.2(4) 2_655 8_755 ?
O3 Pb3 O3 116.3(4) 7_565 8_755 ?
Pb2 Pb4 Pb3 63.645(19) . 1_455 ?
Pb2 Pb4 Pb3 63.645(19) . . ?
Pb3 Pb4 Pb3 103.61(2) . 1_455 ?
O3 Pb4 Pb2 40.3(2) 7_465 . ?
O3 Pb4 Pb2 40.3(2) 2_655 . ?
O3 Pb4 Pb3 38.67(19) 7_465 1_455 ?
O3 Pb4 Pb3 102.4(2) 2_655 1_455 ?
O3 Pb4 Pb3 38.67(19) 2_655 . ?
O3 Pb4 Pb3 102.4(2) 7_465 . ?
O3 Pb4 O3 78.6(4) 2_655 7_465 ?
O3 Pb4 O5 82.0(4) 7_465 . ?
O3 Pb4 O5 82.0(4) 2_655 . ?
O5 Pb4 Pb2 70.0(4) . . ?
O5 Pb4 Pb3 56.19(14) . . ?
O5 Pb4 Pb3 56.19(14) . 1_455 ?
O1 N1 O1 124(4) . 2_565 ?
O1 N1 O2 118.1(19) 2_565 . ?
O1 N1 O2 118.1(19) . . ?
O4 B1 O4 122(3) 2_665 . ?
O5 B1 O4 119.1(13) 5_666 2_665 ?
O5 B1 O4 119.1(13) 5_666 . ?
Pb1 O3 Pb2 128.0(3) . 1_655 ?
Pb1 O3 Pb3 100.3(3) . . ?
Pb1 O3 Pb4 112.6(3) . 2_655 ?
Pb2 O3 Pb3 107.7(3) 1_655 . ?
Pb4 O3 Pb2 101.5(3) 2_655 1_655 ?
Pb4 O3 Pb3 104.7(3) 2_655 . ?
B1 O4 Pb1 134.8(16) . . ?
Pb4 O5 Pb4 142.2(9) . 2 ?
B1 O5 Pb4 108.9(4) 5_666 2 ?
B1 O5 Pb4 108.9(4) 5_666 . ?
loop_
_geom_bond_atom_site_label_1
_geom_bond_atom_site_label_2
_geom_bond_distance
_geom_bond_site_symmetry_2
_geom_bond_publ_flag
Pb1 Pb1 3.6684(14) 2_665 ?
Pb1 O3 2.215(8) . ?
Pb1 O3 2.215(8) 8_755 ?
Pb1 O4 2.236(15) . ?
Pb2 Pb4 3.5730(11) 2 ?
Pb2 Pb4 3.5730(11) . ?
Pb2 O3 2.358(8) 1_455 ?
Pb2 O3 2.358(8) 8_755 ?
Pb2 O3 2.358(8) 2_655 ?
Pb2 O3 2.358(8) 7_465 ?
Pb3 Pb4 3.6570(5) 2_655 ?
Pb3 Pb4 3.6569(5) . ?
Pb3 Pb4 3.6570(5) 2 ?
Pb3 Pb4 3.6570(5) 1_655 ?
Pb3 O3 2.363(8) 7_565 ?
Pb3 O3 2.363(8) . ?
Pb3 O3 2.363(8) 2_655 ?
Pb3 O3 2.363(8) 8_755 ?
Pb4 O3 2.254(8) 2_655 ?
Pb4 O3 2.254(8) 7_465 ?
Pb4 O5 2.372(6) . ?
N1 O1 1.19(3) . ?
N1 O1 1.19(3) 2_565 ?
N1 O2 1.28(4) . ?
B1 O4 1.41(2) 2_665 ?
B1 O4 1.41(2) . ?
B1 O5 1.35(4) 5_666 ?
