#------------------------------------------------------------------------------
#$Date: 2024-04-30 02:03:11 +0300 (Tue, 30 Apr 2024) $
#$Revision: 291414 $
#$URL: file:///home/coder/svn-repositories/cod/cif/7/71/58/7715887.cif $
#------------------------------------------------------------------------------
#
# This file is available in the Crystallography Open Database (COD),
# http://www.crystallography.net/
#
# All data on this site have been placed in the public domain by the
# contributors.
#
data_7715887
loop_
_publ_author_name
'Volkov, Sergey'
'Yukhno, Valentina'
'Banaru, Alexander'
'Deyneko, Dina'
'Aksenov, Sergey'
'Charkin, Dmitri'
'Povolotskiy, Alexey'
'Savchenko, Yevgeny'
'Antonov, Andrey'
'Krzhizhanovskaya, Maria'
'Ugolkov, Valery'
'Firsova, Vera'
'Vaitieva, Yulia'
'Boldyrev, Kirill'
'Bubnova, Rimma'
_publ_section_title
;
 Magnesium cations as templates for the self-assembly of supramolecular
 luminescent {Mg@[B<sub>18</sub>&#x3c6;<sub>34-35</sub>]}-clusters.
;
_journal_name_full
'Dalton transactions (Cambridge, England : 2003)'
_journal_paper_doi               10.1039/d3dt04048h
_journal_year                    2024
_chemical_formula_moiety
'B8.5 Mg0.5 O15.5, B8.5 Mg0.5 O15, [C11.75H49.5N5O1.5]'
_chemical_formula_sum            'B17 Mg O30.5'
_chemical_formula_weight         696.0567
_space_group_crystal_system      monoclinic
_space_group_IT_number           7
_space_group_name_Hall           'P -2yc'
_space_group_name_H-M_alt        'P 1 c 1'
_atom_sites_solution_primary     direct
_audit_creation_date             2024-02-26
_audit_creation_method
;
Olex2 1.5-alpha
(compiled 2024.02.16 svn.r378c4104 for OlexSys, GUI svn.r6928)
;
_audit_update_record
;
2024-03-15 deposited with the CCDC.	2024-03-21 downloaded from the CCDC.
;
_cell_angle_alpha                90
_cell_angle_beta                 91.091(5)
_cell_angle_gamma                90
_cell_formula_units_Z            8
_cell_length_a                   19.5105(10)
_cell_length_b                   19.9572(8)
_cell_length_c                   21.3269(11)
_cell_measurement_reflns_used    10048
_cell_measurement_temperature    100.0(2)
_cell_measurement_theta_max      25.2720
_cell_measurement_theta_min      2.1470
_cell_volume                     8302.7(7)
_computing_cell_refinement       'CrysAlisPro 1.171.41.93a (Rigaku OD, 2020)'
_computing_data_collection       'CrysAlisPro 1.171.41.93a (Rigaku OD, 2020)'
_computing_data_reduction        'CrysAlisPro 1.171.41.93a (Rigaku OD, 2020)'
_computing_molecular_graphics    'Olex2 1.5-alpha (Dolomanov et al., 2009)'
_computing_publication_material  'Olex2 1.5-alpha (Dolomanov et al., 2009)'
_computing_structure_refinement  'SHELXL 2019/3 (Sheldrick, 2015)'
_computing_structure_solution    'SHELXS  (Sheldrick, 2008)'
_diffrn_ambient_environment      N~2~
_diffrn_ambient_temperature      100.0(2)
_diffrn_detector                 'Hybrid Pixel Array Detector'
_diffrn_detector_area_resol_mean 10.0000
_diffrn_detector_type            HyPix
_diffrn_measured_fraction_theta_full 0.986
_diffrn_measured_fraction_theta_max 0.986
_diffrn_measurement_details
;
List of Runs (angles in degrees, time in seconds):

  # Type    Start    End  Width  t~exp~   \w     \q     \k     \f   Frames
#--------------------------------------------------------------------------
  1  \w    -29.00  10.00   0.50   50.00    --   11.38 -96.00 -18.00   78
  2  \w     -7.00  20.00   0.50   50.00    --  -11.70  96.00  90.00   54
  3  \w    -16.00  44.00   0.50   50.00    --   11.38 -99.00-120.00  120
  4  \w    -80.00  -8.00   0.50   50.00    --  -11.70 -38.00 -60.00  144
  5  \w    -24.00  16.00   0.50   50.00    --  -11.70 -99.00   0.00   80
  6  \w    -20.00  14.00   0.50   50.00    --  -11.70 -99.00  30.00   68
  7  \w    -13.00  16.00   0.50   50.00    --  -11.70 -99.00-150.00   58
  8  \w    -20.00  16.00   0.50   50.00    --  -11.70 -99.00-180.00   72
;
_diffrn_measurement_device       'four-circle diffractometer'
_diffrn_measurement_device_type
'XtaLAB Synergy, Single source at home/near, HyPix'
_diffrn_measurement_method       '\w scans'
_diffrn_orient_matrix_type
'CrysAlisPro convention (1999,Acta A55,543-557)'
_diffrn_orient_matrix_UB_11      0.0237908000
_diffrn_orient_matrix_UB_12      -0.0268552000
_diffrn_orient_matrix_UB_13      -0.0000074000
_diffrn_orient_matrix_UB_21      -0.0237401000
_diffrn_orient_matrix_UB_22      -0.0197735000
_diffrn_orient_matrix_UB_23      -0.0175152000
_diffrn_orient_matrix_UB_31      0.0138715000
_diffrn_orient_matrix_UB_32      0.0122671000
_diffrn_orient_matrix_UB_33      -0.0282893000
_diffrn_radiation_monochromator  mirror
_diffrn_radiation_probe          x-ray
_diffrn_radiation_type           'Mo K\a'
_diffrn_radiation_wavelength     0.71073
_diffrn_reflns_av_R_equivalents  0.1342
_diffrn_reflns_av_unetI/netI     0.1477
_diffrn_reflns_Laue_measured_fraction_full 0.986
_diffrn_reflns_Laue_measured_fraction_max 0.986
_diffrn_reflns_limit_h_max       23
_diffrn_reflns_limit_h_min       -23
_diffrn_reflns_limit_k_max       24
_diffrn_reflns_limit_k_min       -23
_diffrn_reflns_limit_l_max       25
_diffrn_reflns_limit_l_min       -23
_diffrn_reflns_number            72918
_diffrn_reflns_point_group_measured_fraction_full 0.837
_diffrn_reflns_point_group_measured_fraction_max 0.836
_diffrn_reflns_theta_full        25.242
_diffrn_reflns_theta_max         25.350
_diffrn_reflns_theta_min         1.734
_diffrn_source                   'micro-focus sealed X-ray tube'
_diffrn_source_type              'PhotonJet (Mo) X-ray Source'
_exptl_absorpt_coefficient_mu    0.122
_exptl_absorpt_correction_T_max  1.00000
_exptl_absorpt_correction_T_min  0.50206
_exptl_absorpt_correction_type   multi-scan
_exptl_absorpt_process_details
;
CrysAlisPro 1.171.41.93a (Rigaku Oxford Diffraction, 2020)
Empirical absorption correction using spherical harmonics,
implemented in SCALE3 ABSPACK scaling algorithm.
;
_exptl_crystal_density_diffrn    1.114
_exptl_crystal_description       prizm
_exptl_crystal_F_000             2728
_exptl_crystal_size_max          0.17
_exptl_crystal_size_mid          0.15
_exptl_crystal_size_min          0.08
_exptl_transmission_factor_max   1
_exptl_transmission_factor_min   0.476
_refine_diff_density_max         0.018
_refine_diff_density_min         -0.023
_refine_diff_density_rms         0.002
_refine_ls_abs_structure_details
;
 Flack x determined using 3236 quotients [(I+)-(I-)]/[(I+)+(I-)]
 (Parsons, Flack and Wagner, Acta Cryst. B69 (2013) 249-259).
;
_refine_ls_abs_structure_Flack   0.6(4)
_refine_ls_extinction_method     none
_refine_ls_goodness_of_fit_ref   0.960
_refine_ls_hydrogen_treatment    undef
_refine_ls_matrix_type           full
_refine_ls_number_parameters     696
_refine_ls_number_reflns         25415
_refine_ls_number_restraints     0
_refine_ls_restrained_S_all      0.960
_refine_ls_R_factor_all          0.1687
_refine_ls_R_factor_gt           0.0988
_refine_ls_shift/su_max          0.006
_refine_ls_shift/su_mean         0.000
_refine_ls_structure_factor_coef Fsqd
_refine_ls_weighting_details
'w=1/[\s^2^(Fo^2^)+(0.1709P)^2^] where P=(Fo^2^+2Fc^2^)/3'
_refine_ls_weighting_scheme      calc
_refine_ls_wR_factor_gt          0.2447
_refine_ls_wR_factor_ref         0.2969
_reflns_Friedel_coverage         0.694
_reflns_Friedel_fraction_full    0.688
_reflns_Friedel_fraction_max     0.685
_reflns_number_gt                12696
_reflns_number_total             25415
_reflns_threshold_expression     'I > 2\s(I)'
_cod_data_source_file            d3dt04048h2.cif
_cod_data_source_block           5
_cod_original_cell_volume        8302.6(7)
_cod_original_formula_sum        'B17 Mg O30.50'
_cod_database_code               7715887
_shelx_shelxl_version_number     2019/3
_chemical_oxdiff_formula         C11.75H49.5B17MgN5O32
_shelx_space_group_comment
;
The symmetry employed for this shelxl refinement is uniquely defined
by the following loop, which should always be used as a source of
symmetry information in preference to the above space-group names.
They are only intended as comments.
;
_olex2_refinement_description
;
1. Uiso/Uaniso restraints and constraints
Uiso(O71) = Uiso(O33) = Uiso(B12) = Uiso(O25)
Uanis(B8) = Uanis(O26) = Uanis(O70) = Uanis(O49)
Uanis(O1) = Uanis(O29) = Uanis(O8) = Uanis(O63) = Uanis(B7) = Uanis(O39) =
Uanis(B11) = Uanis(O76) = Uanis(O35)
Uanis(O3) = Uanis(O34) = Uanis(O67) = Uanis(O38) = Uanis(B46) = Uanis(O7) =
Uanis(B17) = Uanis(O54) = Uanis(O90)
Uiso(O24) = Uiso(O71) = Uiso(O6) = Uiso(O33) = Uiso(O25) = Uiso(B12)
Uanis(B43) = Uanis(O18) = Uanis(O41) = Uanis(O98) = Uanis(O17) = Uanis(B25) =
Uanis(O48)
Uanis(B52) = Uanis(B1) = Uanis(B6) = Uanis(O50)
Uanis(B10) = Uanis(O14) = Uanis(B30) = Uanis(O96) = Uanis(B3)
Uanis(O123) = Uanis(B13) = Uanis(B44) = Uanis(O72)
Uanis(O59) = Uanis(O28)
Uiso(O116) = Uiso(B57) = Uiso(O78) = Uiso(O115)
Uanis(O5) = Uanis(B18) = Uanis(O73) = Uanis(O32)
Uanis(B36) = Uanis(B24) = Uanis(O40)
Uanis(O122) = Uanis(B61) = Uanis(B64)
Uanis(O81) = Uanis(B2) = Uanis(O46) = Uanis(O9)
Uanis(B15) = Uanis(B66) = Uanis(O87) = Uanis(B35)
Uanis(B41) = Uanis(O108) = Uanis(B40) = Uanis(B56) = Uanis(B38) = Uanis(O117)
Uanis(B65) = Uanis(B51) = Uanis(O111) = Uanis(B37) = Uanis(O47)
Uanis(O36) = Uanis(B29) = Uanis(B42) = Uanis(O89)
Uiso(B22) = Uiso(O104)
Uanis(B58) = Uanis(O42) = Uanis(B48) = Uanis(O92)
Uanis(O37) = Uanis(B27) = Uanis(O61)
Uanis(B47) = Uanis(B34) = Uanis(O82)
Uanis(O68) = Uanis(B34) = Uanis(B21)
Uanis(B68) = Uanis(O66) = Uanis(B45) = Uanis(B54)
Uanis(O20) = Uanis(B55) = Uanis(O53)
Uanis(B59) = Uanis(B61) = Uanis(O122) = Uanis(O57) = Uanis(O119)
Uanis(B60) = Uanis(B39) = Uanis(O102)
Uanis(O101) = Uanis(O32) = Uanis(B39) = Uanis(O45)
Uanis(B14) = Uanis(O65)
Uanis(O110) = Uanis(O93)
Uanis(O10) = Uanis(B36) = Uanis(O86)
Uanis(B49) = Uanis(O113)
Uanis(B28) = Uanis(O11)
Uanis(B43) = Uanis(O2)
Uanis(O22) = Uanis(O55)
Uanis(O20) = Uanis(O21) = Uanis(B35)
Uanis(O74) = Uanis(B24) = Uanis(B16)
Uanis(O81) = Uanis(O9) = Uanis(O46) = Uanis(B67)
Uanis(O91) = Uanis(B59)
Uanis(O85) = Uanis(O107)
Uanis(O93) = Uanis(O62) = Uanis(O75) = Uanis(O110)
Uanis(O80) = Uanis(B65) = Uanis(O85)
Uanis(O44) = Uanis(B59) = Uanis(O91)
Uanis(B10) = Uanis(O99) = Uanis(O14) = Uanis(O27)
Uanis(O59) = Uanis(O100) = Uanis(B53)
Uanis(O37) = Uanis(B31) = Uanis(O31) = Uanis(O58)
Uanis(O64) = Uanis(B65) = Uanis(O80) = Uanis(O85) = Uanis(B51) = Uanis(O111) =
Uanis(O107)
Uanis(O112) = Uanis(B49) = Uanis(O113) = Uanis(O28)
Uanis(B63) = Uanis(O30) = Uanis(O52)
Uanis(O97) = Uanis(B2) = Uanis(O42)
Uanis(O65) = Uanis(B14) = Uanis(B60) = Uanis(O45) = Uanis(O73)
Uanis(B36) = Uanis(B24) = Uanis(O91) = Uanis(O57)
Uanis(B14) = Uanis(O69)
Uanis(B41) = Uanis(O4)
Uanis(O105) = Uanis(B68) = Uanis(B29)
Uanis(O4) = Uanis(B41)
Uanis(O50) = Uanis(O23) = Uanis(B6)
Uanis(O114) = Uanis(O103) = Uanis(O121) = Uanis(B38)
Uanis(O93) = Uanis(O53) = Uanis(B14) = Uanis(O69)
Uanis(O19) = Uanis(B1) = Uanis(O63)
Uanis(O110) = Uanis(B40)
Uanis(O118) = Uanis(B61)
Uanis(Mg3) = Uanis(O72)
Uanis(O60) = Uanis(B44)
Uanis(O93) = Uanis(B23) = Uanis(O69) = Uanis(O53)
Uanis(O15) = Uanis(B58) = Uanis(O81) = Uanis(O42)
Uiso(B26) = Uiso(O12)
Uanis(Mg4) = Uanis(O79)
Uanis(B13) = Uanis(O83)
Uanis(B1) = Uanis(O43)
Uanis(B25) = Uanis(O16)
2. Others
 Fixed X: O62(0.90308) O75(1.02762) O77(0.89009) O78(0.81145) O79(0.99239)
 O88(0.867371) O94(0.902829) O102(0.80867) O108(0.87906) O109(0.91509)
 O110(0.83573) O111(0.87123) B37(0.89047) B38(0.897221) B40(0.85065)
 B45(0.855901) B50(0.88713) O115(0.85562) O116(0.939468) B51(0.79897)
 B55(0.98127) O117(0.84482) B56(0.84081) B57(0.87416) O119(0.8845)
 O120(0.838921) B62(0.844609) B64(0.84631) O121(0.89509)
 Fixed Y: O62(0.64692) O75(0.625851) O77(1.34359) O78(1.42773) O79(0.667701)
 O88(1.242789) O94(1.24512) O102(0.922509) O108(0.68222) O109(0.935999)
 O110(0.73226) O111(0.71035) B37(0.702009) B38(0.78912) B40(0.67218)
 B45(0.88109) B50(1.27632) O115(1.35566) O116(1.42542) B51(0.67493)
 B55(0.64644) O117(0.83863) B56(0.761861) B57(1.39105) O119(1.2205)
 O120(1.259549) B62(1.28104) B64(1.20513) O121(0.84915)
 Fixed Z: O62(0.244629) O75(0.25287) O77(0.38785) O78(0.332029) O79(0.15553)
 O88(0.32923) O94(0.440639) O102(0.3505) O108(0.126081) O109(0.265301)
 O110(0.2005) O111(0.51018) B37(0.44521) B38(0.35161) B40(0.18769) B45(0.29772)
 B50(0.3848) O115(0.297009) O116(0.33998) B51(0.55237) B55(0.22285)
 O117(0.25167) B56(0.24574) B57(0.35279) O119(0.1525) O120(0.246129)
 B62(0.296889) B64(0.20174) O121(0.37713)
;
_smtbx_masks_void_probe_radius   0.84
_smtbx_masks_void_truncation_radius 1.42
_shelx_res_file
;
TITL exp_1116 in Pc #7
    exp_1116.res
    created by SHELXL-2019/3 at 17:19:06 on 26-Feb-2024
CELL 0.71073 19.510451 19.95722 21.326915 90 91.0908 90
ZERR 8 0.000995 0.000815 0.001135 0 0.0046 0
LATT -1
SYMM +X,-Y,0.5+Z
SFAC B Mg O
UNIT 136 8 244
EADP O71 O33 B12 O25
EADP B8 O26 O70 O49
EADP O1 O29 O8 O63 B7 O39 B11 O76 O35
EADP O3 O34 O67 O38 B46 O7 B17 O54 O90
EADP O24 O71 O6 O33 O25 B12
EADP B43 O18 O41 O98 O17 B25 O48
EADP B52 B1 B6 O50
EADP B10 O14 B30 O96 B3
EADP O123 B13 B44 O72
EADP O59 O28
EADP O116 B57 O78 O115
EADP O5 B18 O73 O32
EADP B36 B24 O40
EADP O122 B61 B64
EADP O81 B2 O46 O9
EADP B15 B66 O87 B35
EADP B41 O108 B40 B56 B38 O117
EADP B65 B51 O111 B37 O47
EADP O36 B29 B42 O89
EADP B22 O104
EADP B58 O42 B48 O92
EADP O37 B27 O61
EADP B47 B34 O82
EADP O68 B34 B21
EADP B68 O66 B45 B54
EADP O20 B55 O53
EADP B59 B61 O122 O57 O119
EADP B60 B39 O102
EADP O101 O32 B39 O45
EADP B14 O65
EADP O110 O93
EADP O10 B36 O86
EADP B49 O113
EADP B28 O11
EADP B43 O2
EADP O22 O55
EADP O20 O21 B35
EADP O74 B24 B16
EADP O81 O9 O46 B67
EADP O91 B59
EADP O85 O107
EADP O93 O62 O75 O110
EADP O80 B65 O85
EADP O44 B59 O91
EADP B10 O99 O14 O27
EADP O59 O100 B53
EADP O37 B31 O31 O58
EADP O64 B65 O80 O85 B51 O111 O107
EADP O112 B49 O113 O28
EADP B63 O30 O52
EADP O97 B2 O42
EADP O65 B14 B60 O45 O73
EADP B36 B24 O91 O57
EADP B14 O69
EADP B41 O4
EADP O105 B68 B29
EADP O4 B41
EADP O50 O23 B6
EADP O114 O103 O121 B38
EADP O93 O53 B14 O69
EADP O19 B1 O63
EADP O110 B40
EADP O118 B61
EADP Mg3 O72
EADP O60 B44
EADP O93 B23 O69 O53
EADP O15 B58 O81 O42
EADP B26 O12
EADP Mg4 O79
EADP B13 O83
EADP B1 O43
EADP B25 O16

L.S. 200
PLAN  1
TEMP -173
CONF
MORE -1
ABIN
fmap 2 53
acta
OMIT -4 0 4
OMIT -3 1 2
OMIT -1 2 -3
OMIT 1 2 3
OMIT 2 2 3
OMIT 2 3 1
OMIT 3 1 -2
OMIT 3 1 2
REM <olex2.extras>
REM <HklSrc "%.\\exp_1116.hkl">
REM </olex2.extras>

WGHT    0.170900
SWAT    0.981365    0.0002
FVAR       4.90384
MG1   2    0.375845    0.865474    0.320757    11.00000    0.04711    0.02597 =
         0.02425   -0.01822   -0.01171    0.01222
O1    3    0.462384    0.845048    0.459143    11.00000    0.03358    0.04112 =
         0.04132    0.00890    0.00266    0.00077
MG2   2    0.870015    1.134510    0.332955    11.00000    0.03628    0.03719 =
         0.06731    0.03197    0.00126   -0.02322
O2    3    0.478617    0.791934    0.055947    11.00000    0.04253    0.02770 =
         0.05343   -0.00909    0.00077    0.00273
O3    3    0.409577    0.862845    0.226251    11.00000    0.02336    0.02259 =
         0.03111    0.00129   -0.00441   -0.00174
MG3   2    0.367405    0.365739    0.340120    11.00000    0.02782    0.02273 =
         0.03013   -0.00609    0.00916    0.01228
O6    3    0.399902    0.650768    0.349895    11.00000    0.03374
O5    3    0.579185    1.055892    0.230191    11.00000    0.04363    0.04089 =
         0.07567   -0.00042   -0.00467   -0.00336
O123  3    0.362789    0.334586    0.541762    11.00000    0.02782    0.02273 =
         0.03013   -0.00609    0.00916    0.01228
O7    3    0.341087    0.767987    0.198654    11.00000    0.02336    0.02259 =
         0.03111    0.00129   -0.00441   -0.00174
O8    3    0.230206    0.876683    0.388498    11.00000    0.03358    0.04112 =
         0.04132    0.00890    0.00266    0.00077
O9    3    0.955526    1.142599    0.466577    11.00000    0.06290    0.05170 =
         0.02782   -0.01932   -0.00197    0.01135
O10   3    1.056430    1.093927    0.442779    11.00000    0.05249    0.12069 =
         0.06799    0.03396    0.00039   -0.01477
O11   3    0.449002    0.369768    0.477503    11.00000    0.02652    0.01299 =
         0.02288   -0.00833    0.00023    0.00611
O12   3    0.082584    0.950252    0.231715    11.00000    0.03932
O4    3    0.969582    0.711142    0.060607    11.00000    0.04363    0.04089 =
         0.07567   -0.00042   -0.00467   -0.00336
MG4   2    0.872478    0.633221    0.327613    11.00000    0.04973    0.01788 =
         0.08498    0.00822   -0.02865   -0.00935
O14   3    0.554210    0.413426    0.450515    11.00000    0.02247    0.05194 =
         0.04799   -0.00465   -0.00058    0.00261
O15   3    0.725733    1.116997    0.398923    11.00000    0.06290    0.05170 =
         0.02782   -0.01932   -0.00197    0.01135
O16   3    0.328470    1.245942    0.240488    11.00000    0.04253    0.02770 =
         0.05343   -0.00909    0.00077    0.00273
O17   3    0.396175    1.157786    0.399657    11.00000    0.04253    0.02770 =
         0.05343   -0.00909    0.00077    0.00273
O18   3    0.499329    0.976245    0.303386    11.00000    0.04253    0.02770 =
         0.05343   -0.00909    0.00077    0.00273
O19   3    0.366961    0.784683    0.511461    11.00000    0.03358    0.04112 =
         0.04132    0.00890    0.00266    0.00077
O20   3    0.993114    0.523227    0.300070    11.00000    0.04363    0.04089 =
         0.07567   -0.00042   -0.00467   -0.00336
O21   3    1.088543    0.575912    0.346271    11.00000    0.04363    0.04089 =
         0.07567   -0.00042   -0.00467   -0.00336
O22   3    0.556568    0.900015    0.437269    11.00000    0.04728    0.03176 =
         0.10727   -0.03253    0.01861   -0.01741
O23   3    0.364400    0.468970    0.316225    11.00000    0.03358    0.04112 =
         0.04132    0.00890    0.00266    0.00077
O24   3    0.304370    0.574365    0.317090    11.00000    0.03374
O25   3    0.374519    0.758430    0.305312    11.00000    0.03374
O26   3    0.277335    0.881061    0.285928    11.00000    0.03016    0.02070 =
         0.02653   -0.00192    0.00162    0.01208
O27   3    0.581301    0.423968    0.343799    11.00000    0.02247    0.05194 =
         0.04799   -0.00465   -0.00058    0.00261
O28   3    0.378683    0.289125    0.149598    11.00000    0.05166    0.12524 =
         0.03873   -0.03759    0.02973   -0.03478
O29   3    0.346653    0.841705    0.405641    11.00000    0.03358    0.04112 =
         0.04132    0.00890    0.00266    0.00077
O30   3    0.249014    0.342011    0.505399    11.00000    0.03002    0.03037 =
         0.02575    0.00622   -0.00314   -0.00762
O31   3    0.081869    0.442522    0.229528    11.00000    0.01339    0.04111 =
         0.02091    0.00736   -0.00650    0.00413
O32   3    0.690037    1.089965    0.211620    11.00000    0.04363    0.04089 =
         0.07567   -0.00042   -0.00467   -0.00336
O33   3    0.346078    0.662595    0.245340    11.00000    0.03374
O34   3    0.500854    0.829064    0.156383    11.00000    0.02336    0.02259 =
         0.03111    0.00129   -0.00441   -0.00174
O35   3    0.600269    0.914748    0.336671    11.00000    0.03358    0.04112 =
         0.04132    0.00890    0.00266    0.00077
O36   3    0.587196    0.546930    0.228806    11.00000    0.02930    0.05152 =
         0.04294    0.02465   -0.01839   -0.01897
O37   3    0.153730    0.420960    0.323352    11.00000    0.01339    0.04111 =
         0.02091    0.00736   -0.00650    0.00413
O38   3    0.296501    0.878757    0.174325    11.00000    0.02336    0.02259 =
         0.03111    0.00129   -0.00441   -0.00174
O39   3    0.484341    0.870708    0.357434    11.00000    0.03358    0.04112 =
         0.04132    0.00890    0.00266    0.00077
O40   3    0.992029    1.024563    0.300408    11.00000    0.05249    0.12069 =
         0.06799    0.03396    0.00039   -0.01477
O41   3    0.438417    1.077018    0.338475    11.00000    0.04253    0.02770 =
         0.05343   -0.00909    0.00077    0.00273
O42   3    0.751692    1.157465    0.501386    11.00000    0.06290    0.05170 =
         0.02782   -0.01932   -0.00197    0.01135
O43   3    0.277791    0.863931    0.498811    11.00000    0.03358    0.04112 =
         0.04132    0.00890    0.00266    0.00077
O44   3    0.907600    1.144815    0.230793    11.00000    0.05249    0.12069 =
         0.06799    0.03396    0.00039   -0.01477
O45   3    0.766161    1.128633    0.298805    11.00000    0.04363    0.04089 =
         0.07567   -0.00042   -0.00467   -0.00336
O46   3    0.863396    1.164854    0.540512    11.00000    0.06290    0.05170 =
         0.02782   -0.01932   -0.00197    0.01135
O47   3    0.658660    0.574532    0.317227    11.00000    0.04812    0.06039 =
         0.07403   -0.03198   -0.01731   -0.00750
O48   3    0.368701    1.257733    0.343688    11.00000    0.04253    0.02770 =
         0.05343   -0.00909    0.00077    0.00273
O49   3    0.159509    0.926136    0.313626    11.00000    0.03016    0.02070 =
         0.02653   -0.00192    0.00162    0.01208
O50   3    0.483193    0.474472    0.297046    11.00000    0.03358    0.04112 =
         0.04132    0.00890    0.00266    0.00077
O51   3    0.871548    1.027362    0.324412    11.00000    0.10219    0.02346 =
         0.09300   -0.02416    0.07672   -0.02135
O52   3    0.220430    0.387138    0.409876    11.00000    0.03002    0.03037 =
         0.02575    0.00622   -0.00314   -0.00762
B1    1    0.310218    0.818529    0.530560    11.00000    0.03358    0.04112 =
         0.04132    0.00890    0.00266    0.00077
O53   3    1.056534    0.598259    0.442327    11.00000    0.04363    0.04089 =
         0.07567   -0.00042   -0.00467   -0.00336
O54   3    0.531166    0.875102    0.249763    11.00000    0.02336    0.02259 =
         0.03111    0.00129   -0.00441   -0.00174
O55   3    0.319449    1.071392    0.368050    11.00000    0.04728    0.03176 =
         0.10727   -0.03253    0.01861   -0.01741
O56   3    0.255791    0.987943    0.344169    11.00000    0.03518    0.04369 =
         0.03576    0.00625    0.01422    0.00051
O57   3    1.090081    1.082360    0.334365    11.00000    0.05249    0.12069 =
         0.06799    0.03396    0.00039   -0.01477
B2    1    0.789238    1.180444    0.539292    11.00000    0.06290    0.05170 =
         0.02782   -0.01932   -0.00197    0.01135
O58   3    0.186305    0.399712    0.221645    11.00000    0.01339    0.04111 =
         0.02091    0.00736   -0.00650    0.00413
O59   3    0.402416    0.341005    0.246815    11.00000    0.05166    0.12524 =
         0.03873   -0.03759    0.02973   -0.03478
O60   3    0.402229    0.260476    0.454953    11.00000    0.02782    0.02273 =
         0.03013   -0.00609    0.00916    0.01228
O61   3    0.265547    0.372020    0.307364    11.00000    0.01339    0.04111 =
         0.02091    0.00736   -0.00650    0.00413
O62   3   10.903080   10.646920   10.244629    11.00000    0.04363    0.04089 =
         0.07567   -0.00042   -0.00467   -0.00336
O63   3    0.290960    0.802271    0.593257    11.00000    0.03358    0.04112 =
         0.04132    0.00890    0.00266    0.00077
O64   3    0.724574    0.618268    0.406421    11.00000    0.04812    0.06039 =
         0.07403   -0.03198   -0.01731   -0.00750
O65   3    0.753665    1.016015    0.344790    11.00000    0.04363    0.04089 =
         0.07567   -0.00042   -0.00467   -0.00336
O66   3    0.776290    0.620198    0.295850    11.00000    0.02930    0.05152 =
         0.04294    0.02465   -0.01839   -0.01897
O67   3    0.385466    0.825260    0.117669    11.00000    0.02336    0.02259 =
         0.03111    0.00129   -0.00441   -0.00174
O68   3    0.410043    0.741299    0.413727    11.00000    0.04189    0.03170 =
         0.03813    0.00285   -0.01344   -0.01151
O69   3    0.948126    0.635659    0.474890    11.00000    0.04363    0.04089 =
         0.07567   -0.00042   -0.00467   -0.00336
O70   3    0.197917    0.924221    0.209263    11.00000    0.03016    0.02070 =
         0.02653   -0.00192    0.00162    0.01208
O71   3    0.412329    0.565820    0.262201    11.00000    0.03374
O72   3    0.333917    0.361530    0.432067    11.00000    0.02782    0.02273 =
         0.03013   -0.00609    0.00916    0.01228
O73   3    0.656124    1.079248    0.320570    11.00000    0.04363    0.04089 =
         0.07567   -0.00042   -0.00467   -0.00336
O74   3    0.975618    1.118798    0.370691    11.00000    0.05249    0.12069 =
         0.06799    0.03396    0.00039   -0.01477
B3    1    0.488254    0.393580    0.432062    11.00000    0.02247    0.05194 =
         0.04799   -0.00465   -0.00058    0.00261
O75   3   11.027620   10.625851   10.252870    11.00000    0.04363    0.04089 =
         0.07567   -0.00042   -0.00467   -0.00336
O76   3    0.672885    0.940591    0.418088    11.00000    0.03358    0.04112 =
         0.04132    0.00890    0.00266    0.00077
O77   3   10.890090   11.343590   10.387850    11.00000    0.14540
O78   3   10.811450   11.427730   10.332029    11.00000    0.11247
B4    1    0.359800    0.610834    0.298843    11.00000    0.03445
O79   3   10.992390   10.667701   10.155530    11.00000    0.04973    0.01788 =
         0.08498    0.00822   -0.02865   -0.00935
O80   3    0.844911    0.657153    0.406761    11.00000    0.04812    0.06039 =
         0.07403   -0.03198   -0.01731   -0.00750
B5    1    0.356769    0.723541    0.248087    11.00000    0.01832
O81   3    0.833772    1.139946    0.429359    11.00000    0.06290    0.05170 =
         0.02782   -0.01932   -0.00197    0.01135
O82   3    0.316513    0.955235    0.447522    11.00000    0.04189    0.03170 =
         0.03813    0.00285   -0.01344   -0.01151
O83   3    0.267059    0.307386    0.609729    11.00000    0.02782    0.02273 =
         0.03013   -0.00609    0.00916    0.01228
O84   3    0.253081    0.482644    0.353623    11.00000    0.01764    0.02153 =
         0.03526   -0.00067    0.00832   -0.00116
B6    1    0.302627    0.512338    0.332619    11.00000    0.03358    0.04112 =
         0.04132    0.00890    0.00266    0.00077
B7    1    0.497084    0.861119    0.427305    11.00000    0.03358    0.04112 =
         0.04132    0.00890    0.00266    0.00077
O85   3    0.774403    0.639759    0.499837    11.00000    0.04812    0.06039 =
         0.07403   -0.03198   -0.01731   -0.00750
O86   3    1.168490    1.059303    0.415476    11.00000    0.05249    0.12069 =
         0.06799    0.03396    0.00039   -0.01477
B8    1    0.230152    0.908408    0.339199    11.00000    0.03016    0.02070 =
         0.02653   -0.00192    0.00162    0.01208
B9    1    0.360357    0.833234    0.181119    11.00000    0.03369
B10   1    0.597158    0.432041    0.406322    11.00000    0.02247    0.05194 =
         0.04799   -0.00465   -0.00058    0.00261
B11   1    0.606988    0.917493    0.397617    11.00000    0.03358    0.04112 =
         0.04132    0.00890    0.00266    0.00077
B12   1    0.393047    0.713453    0.364434    11.00000    0.03374
B13   1    0.291509    0.323644    0.547736    11.00000    0.02782    0.02273 =
         0.03013   -0.00609    0.00916    0.01228
B14   1    0.724327    1.094561    0.347253    11.00000    0.04363    0.04089 =
         0.07567   -0.00042   -0.00467   -0.00336
O87   3    0.873802    0.529841    0.330420    11.00000    0.04363    0.04089 =
         0.07567   -0.00042   -0.00467   -0.00336
O88   3   10.867371   11.242789   10.329230    11.00000    0.07464    0.06431 =
         0.22676   -0.00547   -0.02682    0.00191
O89   3    0.756466    0.514780    0.353077    11.00000    0.02930    0.05152 =
         0.04294    0.02465   -0.01839   -0.01897
O90   3    0.378926    0.973885    0.334174    11.00000    0.02336    0.02259 =
         0.03111    0.00129   -0.00441   -0.00174
O91   3    1.020911    1.133664    0.262442    11.00000    0.05249    0.12069 =
         0.06799    0.03396    0.00039   -0.01477
B15   1    0.810507    0.491030    0.347618    11.00000    0.04363    0.04089 =
         0.07567   -0.00042   -0.00467   -0.00336
B16   1    0.994278    1.137326    0.429974    11.00000    0.05249    0.12069 =
         0.06799    0.03396    0.00039   -0.01477
O92   3    1.159035    0.542184    0.427212    11.00000    0.06290    0.05170 =
         0.02782   -0.01932   -0.00197    0.01135
O93   3    0.975052    0.620085    0.359213    11.00000    0.04363    0.04089 =
         0.07567   -0.00042   -0.00467   -0.00336
O94   3   10.902829   11.245120   10.440639    11.00000    0.09531    0.08892 =
         0.15333   -0.03689   -0.04456    0.01047
B17   1    0.475734    0.854547    0.208093    11.00000    0.02336    0.02259 =
         0.03111    0.00129   -0.00441   -0.00174
B18   1    0.633164    1.071445    0.255525    11.00000    0.04363    0.04089 =
         0.07567   -0.00042   -0.00467   -0.00336
B19   1    0.348167    1.310559    0.208536    11.00000    0.03557
B20   1    0.434874    1.008675    0.332602    11.00000    0.02519
O95   3    0.796659    0.621574    0.174228    11.00000    0.08195    0.03182 =
         0.05526    0.02486   -0.00020    0.02050
B21   1    0.515019    0.913308    0.313403    11.00000    0.04189    0.03170 =
         0.03813    0.00285   -0.01344   -0.01151
O96   3    0.469598    0.386088    0.370494    11.00000    0.02247    0.05194 =
         0.04799   -0.00465   -0.00058    0.00261
B22   1    0.421021    0.498731    0.281652    11.00000    0.08783
O97   3    0.777915    1.199719    0.600324    11.00000    0.06290    0.05170 =
         0.02782   -0.01932   -0.00197    0.01135
B23   1    0.992017    0.610520    0.430220    11.00000    0.04363    0.04089 =
         0.07567   -0.00042   -0.00467   -0.00336
B24   1    1.010789    1.092082    0.315971    11.00000    0.05249    0.12069 =
         0.06799    0.03396    0.00039   -0.01477
B25   1    0.347705    1.216738    0.297086    11.00000    0.04253    0.02770 =
         0.05343   -0.00909    0.00077    0.00273
B26   1    0.145019    0.941611    0.249640    11.00000    0.03932
O98   3    0.355719    1.148215    0.304250    11.00000    0.04253    0.02770 =
         0.05343   -0.00909    0.00077    0.00273
O99   3    0.654070    0.466736    0.428355    11.00000    0.02247    0.05194 =
         0.04799   -0.00465   -0.00058    0.00261
O100  3    0.519040    0.366767    0.268951    11.00000    0.05166    0.12524 =
         0.03873   -0.03759    0.02973   -0.03478
B27   1    0.216225    0.411175    0.346997    11.00000    0.01339    0.04111 =
         0.02091    0.00736   -0.00650    0.00413
B28   1    0.387576    0.331523    0.475882    11.00000    0.02652    0.01299 =
         0.02288   -0.00833    0.00023    0.00611
O101  3    0.786072    1.162596    0.199690    11.00000    0.04363    0.04089 =
         0.07567   -0.00042   -0.00467   -0.00336
O102  3   10.808670   10.922509   10.350500    11.00000    0.04363    0.04089 =
         0.07567   -0.00042   -0.00467   -0.00336
O103  3    0.903233    0.764793    0.410839    11.00000    0.04363    0.04089 =
         0.07567   -0.00042   -0.00467   -0.00336
O104  3    0.427168    0.451879    0.228492    11.00000    0.08783
B29   1    0.647624    0.566943    0.255064    11.00000    0.02930    0.05152 =
         0.04294    0.02465   -0.01839   -0.01897
B30   1    0.513372    0.420576    0.326592    11.00000    0.02247    0.05194 =
         0.04799   -0.00465   -0.00058    0.00261
B31   1    0.140559    0.419954    0.264254    11.00000    0.01339    0.04111 =
         0.02091    0.00736   -0.00650    0.00413
O105  3    0.695454    0.581573    0.215816    11.00000    0.02930    0.05152 =
         0.04294    0.02465   -0.01839   -0.01897
O106  3    0.287557    1.336000    0.199664    11.00000    0.06867    0.02351 =
         0.00815   -0.00326   -0.00113    0.02796
B32   1    0.244307    1.368638    0.243912    11.00000    0.01905
B33   1    0.316802    1.007581    0.364294    11.00000    0.03473
O107  3    0.776008    0.688013    0.609964    11.00000    0.04812    0.06039 =
         0.07403   -0.03198   -0.01731   -0.00750
O108  3   10.879060   10.682220   10.126081    11.00000    0.04363    0.04089 =
         0.07567   -0.00042   -0.00467   -0.00336
B34   1    0.385228    0.802295    0.447238    11.00000    0.04189    0.03170 =
         0.03813    0.00285   -0.01344   -0.01151
O109  3   10.915090   10.935999   10.265301    11.00000    0.04336    0.03938 =
         0.05926    0.00262   -0.00547    0.00561
B35   1    1.018027    0.580297    0.321458    11.00000    0.04363    0.04089 =
         0.07567   -0.00042   -0.00467   -0.00336
B36   1    1.108342    1.072799    0.400161    11.00000    0.05249    0.12069 =
         0.06799    0.03396    0.00039   -0.01477
O110  3   10.835730   10.732260   10.200500    11.00000    0.04363    0.04089 =
         0.07567   -0.00042   -0.00467   -0.00336
O111  3   10.871230   10.710350   10.510180    11.00000    0.04812    0.06039 =
         0.07403   -0.03198   -0.01731   -0.00750
B37   1   10.890470   10.702009   10.445210    11.00000    0.04812    0.06039 =
         0.07403   -0.03198   -0.01731   -0.00750
B38   1   10.897221   10.789120   10.351610    11.00000    0.04363    0.04089 =
         0.07567   -0.00042   -0.00467   -0.00336
B39   1    0.748770    1.133723    0.238918    11.00000    0.04363    0.04089 =
         0.07567   -0.00042   -0.00467   -0.00336
B40   1   10.850650   10.672180   10.187690    11.00000    0.04363    0.04089 =
         0.07567   -0.00042   -0.00467   -0.00336
B41   1    0.938895    0.680677    0.112890    11.00000    0.04363    0.04089 =
         0.07567   -0.00042   -0.00467   -0.00336
B42   1    0.723132    0.583882    0.342596    11.00000    0.02930    0.05152 =
         0.04294    0.02465   -0.01839   -0.01897
B43   1    0.450351    0.817105    0.105154    11.00000    0.04253    0.02770 =
         0.05343   -0.00909    0.00077    0.00273
B44   1    0.383359    0.224461    0.399772    11.00000    0.02782    0.02273 =
         0.03013   -0.00609    0.00916    0.01228
B45   1   10.855901   10.881090   10.297720    11.00000    0.02930    0.05152 =
         0.04294    0.02465   -0.01839   -0.01897
B46   1    0.259923    0.888688    0.230580    11.00000    0.02336    0.02259 =
         0.03111    0.00129   -0.00441   -0.00174
B47   1    0.294587    0.881467    0.443069    11.00000    0.04189    0.03170 =
         0.03813    0.00285   -0.01344   -0.01151
B48   1    1.099908    0.575263    0.402103    11.00000    0.06290    0.05170 =
         0.02782   -0.01932   -0.00197    0.01135
O112  3    0.488361    0.304751    0.179680    11.00000    0.05166    0.12524 =
         0.03873   -0.03759    0.02973   -0.03478
O113  3    0.467855    0.265397    0.079420    11.00000    0.05166    0.12524 =
         0.03873   -0.03759    0.02973   -0.03478
B49   1    0.442674    0.279766    0.140069    11.00000    0.05166    0.12524 =
         0.03873   -0.03759    0.02973   -0.03478
B50   1   10.887130   11.276320   10.384800    11.00000    0.08271    0.05369 =
         0.17996   -0.03738    0.02591   -0.01110
O114  3    0.874245    0.740373    0.310922    11.00000    0.04363    0.04089 =
         0.07567   -0.00042   -0.00467   -0.00336
O115  3   10.855620   11.355660   10.297009    11.00000    0.11247
O116  3   10.939468   11.425420   10.339980    11.00000    0.11247
B51   1   10.798970   10.674930   10.552370    11.00000    0.04812    0.06039 =
         0.07403   -0.03198   -0.01731   -0.00750
B52   1    0.374129    1.112826    0.362722    11.00000    0.03358    0.04112 =
         0.04132    0.00890    0.00266    0.00077
B53   1    0.475699    0.345561    0.233024    11.00000    0.05166    0.12524 =
         0.03873   -0.03759    0.02973   -0.03478
B54   1    0.920995    1.002377    0.281556    11.00000    0.02930    0.05152 =
         0.04294    0.02465   -0.01839   -0.01897
B55   1   10.981270   10.646440   10.222850    11.00000    0.04363    0.04089 =
         0.07567   -0.00042   -0.00467   -0.00336
O117  3   10.844820   10.838630   10.251670    11.00000    0.04363    0.04089 =
         0.07567   -0.00042   -0.00467   -0.00336
B56   1   10.840810   10.761861   10.245740    11.00000    0.04363    0.04089 =
         0.07567   -0.00042   -0.00467   -0.00336
B57   1   10.874160   11.391050   10.352790    11.00000    0.11247
B58   1    0.776108    1.133385    0.442170    11.00000    0.06290    0.05170 =
         0.02782   -0.01932   -0.00197    0.01135
O118  3    0.996847    1.184498    0.173129    11.00000    0.05249    0.12069 =
         0.06799    0.03396    0.00039   -0.01477
B59   1    0.966810    1.161966    0.220838    11.00000    0.05249    0.12069 =
         0.06799    0.03396    0.00039   -0.01477
B60   1    0.803796    0.987295    0.343707    11.00000    0.04363    0.04089 =
         0.07567   -0.00042   -0.00467   -0.00336
O119  3   10.884500   11.220500   10.152500    11.00000    0.05249    0.12069 =
         0.06799    0.03396    0.00039   -0.01477
O120  3   10.838921   11.259549   10.246129    11.00000    0.10235    0.10407 =
         0.10730    0.01385    0.02390    0.04069
B61   1    0.942006    1.226331    0.140636    11.00000    0.05249    0.12069 =
         0.06799    0.03396    0.00039   -0.01477
B62   1   10.844609   11.281040   10.296889    11.00000    0.11294    0.05556 =
         0.13590   -0.03559   -0.01151    0.03588
B63   1    0.264355    0.366441    0.438043    11.00000    0.03002    0.03037 =
         0.02575    0.00622   -0.00314   -0.00762
B64   1   10.846310   11.205130   10.201740    11.00000    0.05249    0.12069 =
         0.06799    0.03396    0.00039   -0.01477
O121  3   10.895090   10.849150   10.377130    11.00000    0.04363    0.04089 =
         0.07567   -0.00042   -0.00467   -0.00336
B65   1    0.777459    0.623823    0.444117    11.00000    0.04812    0.06039 =
         0.07403   -0.03198   -0.01731   -0.00750
B66   1    0.935839    0.494922    0.325456    11.00000    0.04363    0.04089 =
         0.07567   -0.00042   -0.00467   -0.00336
B67   1    0.885183    1.169791    0.472779    11.00000    0.06290    0.05170 =
         0.02782   -0.01932   -0.00197    0.01135
O122  3    0.976554    1.218599    0.067426    11.00000    0.05249    0.12069 =
         0.06799    0.03396    0.00039   -0.01477
B68   1    0.754457    0.606939    0.228332    11.00000    0.02930    0.05152 =
         0.04294    0.02465   -0.01839   -0.01897
HKLF 4




REM  exp_1116 in Pc #7
REM wR2 = 0.2969, GooF = S = 0.960, Restrained GooF = 0.960 for all data
REM R1 = 0.0988 for 12925 Fo > 4sig(Fo) and 0.1687 for all 25415 data
REM 696 parameters refined using 0 restraints

END

WGHT      0.1658      0.0000

REM Highest difference peak  0.018,  deepest hole -0.023,  1-sigma level  0.002
Q1    1   0.9044  0.7410  0.4605  11.00000  0.05    0.02
;
_shelx_res_checksum              74031
_shelx_fab_file
;
-23 0 2 0.1015 6.4746
-23 0 4 -5.7059 8.2622
-23 1 1 2.6154 4.3267
-23 1 2 -9.2593 -5.8740
-23 1 3 -2.7694 3.9921
-23 1 4 -2.3283 -4.0520
-23 1 5 -1.2812 1.4259
-23 2 1 -3.5717 1.1065
-23 2 2 1.5427 3.6492
-23 2 3 -2.3261 -1.6797
-23 2 4 0.4620 9.2013
-23 2 5 0.5350 -0.7397
-23 3 1 -1.1941 -7.7384
-23 3 2 -3.5172 -4.4764
-23 3 3 4.8614 0.0997
-23 3 4 -0.2338 -7.5270
-23 4 1 3.3135 4.4922
-23 4 2 -3.8173 -0.4758
-23 4 3 5.8257 -1.9414
-22 0 2 -1.8018 4.4272
-22 0 4 9.8416 -8.4138
-22 0 6 5.0461 -9.6197
-22 0 8 -3.4984 2.1601
-22 1 1 1.0504 7.5923
-22 1 2 10.7847 0.1873
-22 1 3 -15.8418 6.5016
-22 1 4 -5.0452 5.8306
-22 1 5 -2.3066 -8.9013
-22 1 6 3.5356 2.0309
-22 1 7 1.9874 -7.9998
-22 1 8 -5.5817 10.5420
-22 1 9 -8.3365 -2.7841
-22 2 1 6.8617 1.8072
-22 2 2 8.6413 6.0586
-22 2 3 -2.9255 6.1853
-22 2 4 1.2474 -3.6350
-22 2 5 -9.6710 4.7653
-22 2 6 0.5040 7.0590
-22 2 7 -6.1848 3.1091
-22 2 8 1.9558 3.6269
-22 2 9 -0.6052 -2.8952
-22 3 1 9.5480 8.7901
-22 3 2 8.9685 5.9137
-22 3 3 -10.1428 2.3980
-22 3 4 -0.5981 -0.7663
-22 3 5 1.7956 -3.2483
-22 3 6 0.2860 -13.2658
-22 3 7 -1.0237 5.0280
-22 3 8 8.2949 -5.4521
-22 4 1 -3.5300 1.2379
-22 4 2 3.5540 5.9229
-22 4 3 5.3446 0.9244
-22 4 4 5.0561 10.4336
-22 4 5 3.3871 3.0151
-22 4 6 0.7919 -10.1999
-22 4 7 -10.3696 -1.9417
-22 4 8 -5.1816 -0.6602
-22 5 1 0.0501 -1.2131
-22 5 2 3.2183 4.8658
-22 5 3 -2.3413 -3.3079
-22 5 4 1.4526 -4.9902
-22 5 5 -3.4600 -7.9908
-22 5 6 6.1258 2.4360
-22 5 7 16.2870 -4.6417
-22 6 1 7.7803 2.2836
-22 6 2 8.9941 13.7957
-22 6 3 -0.3061 -4.2523
-22 6 4 -3.6389 5.7736
-22 6 5 2.0052 1.1199
-22 6 6 4.7245 9.1820
-22 7 1 4.7257 -5.2041
-22 7 2 2.1919 1.0174
-22 7 3 -7.7160 -5.4662
-22 7 4 -1.5574 7.3964
-22 7 5 2.4971 -11.5211
-22 8 1 -1.7876 -5.8937
-22 8 2 -0.2315 6.7470
-22 8 3 2.7840 -2.1150
-21 0 2 -1.4187 -0.0191
-21 0 4 -4.3300 -2.6872
-21 0 6 2.1952 0.5111
-21 0 8 -10.3155 4.8539
-21 0 10 4.3530 2.5133
-21 1 1 -4.4608 5.4791
-21 1 2 8.4578 -1.2998
-21 1 3 4.7068 -11.3393
-21 1 4 14.1213 -7.5913
-21 1 5 3.2661 -0.0847
-21 1 6 6.4159 -4.5033
-21 1 7 -0.6113 1.4173
-21 1 8 -0.5920 1.0139
-21 1 9 -16.7686 1.3147
-21 1 10 1.6723 11.7426
-21 1 11 8.1463 8.7026
-21 2 1 -1.0112 -3.5427
-21 2 2 -0.0404 4.2458
-21 2 3 3.7521 -2.2703
-21 2 4 -4.0845 0.4196
-21 2 5 -0.9105 -12.9444
-21 2 6 -0.7809 2.5758
-21 2 7 11.1880 -3.0038
-21 2 8 7.8801 -0.0995
-21 2 9 3.7647 2.1145
-21 2 10 0.9834 -1.0711
-21 2 11 -12.7149 4.0990
-21 3 1 3.7844 -7.7771
-21 3 2 0.1195 -7.2334
-21 3 3 -2.2272 -9.8216
-21 3 4 6.4477 3.8747
-21 3 5 2.2464 -3.1657
-21 3 6 -9.4191 -1.3102
-21 3 7 -5.1963 -3.6083
-21 3 8 7.1982 -6.4330
-21 3 9 0.3779 -10.9327
-21 3 10 -3.2186 -4.3934
-21 3 11 3.8898 -11.0843
-21 4 1 7.1182 1.5767
-21 4 2 -0.8669 -4.5834
-21 4 3 6.3547 2.0961
-21 4 4 2.3936 -4.7780
-21 4 5 12.7849 -5.0521
-21 4 6 1.1004 1.2367
-21 4 7 13.5989 2.8696
-21 4 8 8.8092 4.7697
-21 4 9 -1.4962 16.1738
-21 4 10 -4.7027 10.7695
-21 4 11 -7.3770 6.6620
-21 5 1 -4.9250 3.2934
-21 5 2 -3.7861 -9.4696
-21 5 3 4.8939 -4.3381
-21 5 4 2.8926 -3.8031
-21 5 5 8.6575 2.4465
-21 5 6 0.6641 2.0495
-21 5 7 9.7120 -6.3406
-21 5 8 -12.3932 -0.6034
-21 5 9 9.5341 5.5151
-21 5 10 -3.8849 -4.7676
-21 6 1 -2.6071 0.5881
-21 6 2 -5.2184 6.0764
-21 6 3 -11.8733 -2.3489
-21 6 4 -5.3570 1.7149
-21 6 5 2.9504 5.8837
-21 6 6 8.8538 -6.8658
-21 6 7 -0.8704 -4.3041
-21 6 8 0.4117 6.9550
-21 6 9 7.3899 -2.1826
-21 6 10 -4.7355 5.7266
-21 7 1 4.0237 5.0793
-21 7 2 -6.5545 -5.9656
-21 7 3 -0.6656 4.9336
-21 7 4 5.7985 -6.6678
-21 7 5 -0.3545 -1.8254
-21 7 6 2.5214 1.4801
-21 7 7 3.5149 11.3140
-21 7 8 5.7752 -5.3411
-21 7 9 -3.5519 13.7895
-21 8 1 -0.4576 7.3561
-21 8 2 6.0444 2.7583
-21 8 3 4.0519 -2.8460
-21 8 4 0.6631 2.3740
-21 8 5 -0.6030 0.6595
-21 8 6 -6.9476 -5.0905
-21 8 7 -3.3846 11.5003
-21 8 8 7.4071 -6.1156
-21 9 1 6.5581 -8.5369
-21 9 2 1.9177 0.7304
-21 9 3 -2.4555 7.1784
-21 9 4 -0.3540 1.0100
-21 9 5 -1.6501 4.5939
-21 9 6 2.6339 -16.9603
-21 10 1 -6.9027 -0.6546
-21 10 2 -0.2724 2.6135
-21 10 3 -10.0995 2.3078
-21 10 4 0.8283 2.3708
-20 0 2 18.3603 -4.0415
-20 0 4 3.5186 4.9978
-20 0 6 11.3648 1.7727
-20 0 8 1.3534 15.9994
-20 0 10 9.5821 12.2013
-20 0 12 6.1971 5.8992
-20 1 1 5.4180 1.3689
-20 1 2 -5.3170 0.3353
-20 1 3 9.9103 -1.9996
-20 1 4 -8.6998 3.4275
-20 1 5 13.8901 10.0688
-20 1 6 -13.2332 2.1956
-20 1 7 10.2910 0.1425
-20 1 8 -14.8520 -4.0900
-20 1 9 -6.1053 -0.8240
-20 1 10 1.4607 -7.8458
-20 1 11 -0.8969 -3.8832
-20 1 12 2.1943 3.9536
-20 1 13 -2.2915 -2.8931
-20 2 1 2.0033 -0.5513
-20 2 2 -5.6207 -0.6464
-20 2 3 4.6577 -5.8725
-20 2 4 5.0998 -1.9371
-20 2 5 4.2054 -5.5085
-20 2 6 -5.8867 3.3860
-20 2 7 -0.9555 -4.9339
-20 2 8 -7.5884 6.6185
-20 2 9 -3.6713 4.5265
-20 2 10 6.8885 12.3490
-20 2 11 -11.3312 -3.4671
-20 2 12 6.8274 7.5790
-20 2 13 0.4658 -9.5928
-20 3 1 4.0509 -1.0222
-20 3 2 3.6426 2.8930
-20 3 3 12.2481 9.8917
-20 3 4 0.5276 8.7165
-20 3 5 -0.8562 15.0498
-20 3 6 2.6760 -5.5645
-20 3 7 -1.3412 0.3948
-20 3 8 8.3837 0.3636
-20 3 9 -1.6318 6.0884
-20 3 10 -5.0810 -4.1150
-20 3 11 0.1989 -4.6242
-20 3 12 8.3162 -6.8853
-20 3 13 1.6236 12.2819
-20 4 1 5.3302 -3.2030
-20 4 2 10.8420 -0.3330
-20 4 3 -6.0303 -2.6621
-20 4 4 8.2997 -0.0811
-20 4 5 2.7272 -2.6204
-20 4 6 6.6040 1.4495
-20 4 7 0.5561 3.7796
-20 4 8 -0.3786 2.2681
-20 4 9 -2.3155 1.1575
-20 4 10 0.3666 6.7427
-20 4 11 2.0662 -1.6870
-20 4 12 -8.3490 11.9193
-20 4 13 0.4909 -4.8493
-20 5 1 1.7441 -9.1672
-20 5 2 -3.6935 4.9430
-20 5 3 5.2159 2.6390
-20 5 4 6.1475 4.2292
-20 5 5 -4.6519 -5.0998
-20 5 6 -1.7909 6.5372
-20 5 7 0.7952 10.7448
-20 5 8 5.8575 -1.7627
-20 5 9 -4.4160 0.6407
-20 5 10 8.6045 -8.6347
-20 5 11 0.6407 2.3492
-20 5 12 5.0348 -6.1835
-20 6 1 -4.0691 0.8952
-20 6 2 6.1442 5.3298
-20 6 3 6.0926 -7.9341
-20 6 4 3.3650 0.3583
-20 6 5 -3.8724 -0.2945
-20 6 6 6.3715 7.3138
-20 6 7 3.8631 0.7985
-20 6 8 4.2791 2.6554
-20 6 9 4.0782 7.0562
-20 6 10 -0.4358 8.5231
-20 6 11 -6.8414 7.8620
-20 6 12 1.9172 1.6416
-20 7 1 8.6644 7.3089
-20 7 2 6.3780 -0.6596
-20 7 3 2.6127 9.5682
-20 7 4 -1.9733 2.3238
-20 7 5 -11.6551 5.8570
-20 7 6 4.9305 3.4963
-20 7 7 1.4530 -1.9725
-20 7 8 2.2383 -5.7752
-20 7 9 -6.4167 3.1023
-20 7 10 8.6908 8.3520
-20 7 11 0.0827 -7.1319
-20 8 1 4.3510 -3.9888
-20 8 2 0.4461 4.7620
-20 8 3 -3.7091 -3.7680
-20 8 4 -5.1041 -0.5380
-20 8 5 0.6365 -3.5424
-20 8 6 -4.3906 -12.6412
-20 8 7 -2.9015 -3.5374
-20 8 8 -4.3417 -7.0731
-20 8 9 -0.7120 1.8880
-20 8 10 -1.6000 -13.5328
-20 9 1 3.6222 5.9875
-20 9 2 -4.5954 2.1652
-20 9 3 -14.5567 14.6264
-20 9 4 0.4722 5.0411
-20 9 5 -3.0224 -3.2480
-20 9 6 -4.9421 2.6503
-20 9 7 7.1511 4.5246
-20 9 8 -9.9944 5.6629
-20 9 9 0.0415 -5.6384
-20 10 1 7.2199 7.1360
-20 10 2 3.7797 4.3169
-20 10 3 -4.7942 1.7320
-20 10 4 -2.6376 0.0533
-20 10 5 -1.7490 -7.3399
-20 10 6 -1.5403 0.1373
-20 10 7 4.8600 4.1174
-20 10 8 -3.6585 -11.7558
-20 11 1 -1.2689 8.8331
-20 11 2 -4.3771 -1.8881
-20 11 3 -0.0219 -2.6155
-20 11 4 1.6357 0.1585
-20 11 5 7.6556 5.3980
-20 11 6 -1.7817 1.6528
-20 11 7 1.4016 -1.9007
-20 12 1 -0.6861 -0.1570
-20 12 2 -5.2722 -7.3211
-20 12 3 -0.8850 4.4127
-20 12 4 -2.0254 3.9763
-19 0 2 -4.6048 -2.9748
-19 0 4 -7.6784 -11.3288
-19 0 6 2.9464 2.1549
-19 0 8 5.1314 -4.4660
-19 0 10 2.2403 7.8301
-19 0 12 -6.8139 1.9696
-19 0 14 -1.9258 -3.8565
-19 1 1 -6.7596 -6.3672
-19 1 2 -9.4273 5.4705
-19 1 3 2.5130 8.7773
-19 1 4 -0.4829 -3.7698
-19 1 5 -1.4079 -6.3895
-19 1 6 -8.9158 -10.0712
-19 1 7 4.9827 -8.5008
-19 1 8 -2.2055 -7.0670
-19 1 9 -1.5189 -13.3627
-19 1 10 -5.6396 0.7503
-19 1 11 -14.0894 8.7556
-19 1 12 18.5574 -7.6450
-19 1 13 1.7049 -6.8240
-19 1 14 7.6903 5.9048
-19 1 15 -8.3481 1.9044
-19 2 1 3.1659 9.4166
-19 2 2 -4.0436 7.6789
-19 2 3 -4.1472 10.3506
-19 2 4 3.9890 -5.8588
-19 2 5 1.7650 -0.8803
-19 2 6 7.7977 2.1396
-19 2 7 -2.1726 4.3765
-19 2 8 -4.1239 5.1381
-19 2 9 11.6815 9.3893
-19 2 10 5.0128 -1.8409
-19 2 11 -4.2436 2.5759
-19 2 12 -8.7414 -3.9917
-19 2 13 4.2552 -9.4821
-19 2 14 -0.2295 -15.1008
-19 2 15 2.9719 -7.5678
-19 3 1 9.3903 3.7144
-19 3 2 10.3459 11.2445
-19 3 3 7.2270 -17.2873
-19 3 4 -18.6252 7.5054
-19 3 5 -4.8820 -6.7085
-19 3 6 -2.7094 -4.2241
-19 3 7 6.6936 -15.7002
-19 3 8 1.5615 4.1417
-19 3 9 5.0503 1.0876
-19 3 10 10.4433 -1.4605
-19 3 11 8.0223 -4.2954
-19 3 12 4.0433 2.8906
-19 3 13 4.1789 0.2963
-19 3 14 8.1998 4.1075
-19 3 15 -2.2896 7.2514
-19 4 1 -12.7359 11.0246
-19 4 2 -2.9247 1.9507
-19 4 3 -20.3132 -0.2948
-19 4 4 2.2816 5.4973
-19 4 5 3.3437 -7.0360
-19 4 6 1.6444 3.7203
-19 4 7 4.7903 -5.2450
-19 4 8 2.1535 8.5245
-19 4 9 -21.1618 3.0635
-19 4 10 -3.8869 0.6787
-19 4 11 -6.4791 -0.0526
-19 4 12 -1.2014 -1.3927
-19 4 13 -1.7495 2.6386
-19 4 14 -0.8266 -5.2017
-19 5 1 0.2143 -7.3084
-19 5 2 11.2752 2.6004
-19 5 3 -2.6940 4.0353
-19 5 4 -0.5440 0.5188
-19 5 5 1.6159 8.0417
-19 5 6 0.9245 -4.8499
-19 5 7 6.6025 1.8416
-19 5 8 -5.1093 -5.2313
-19 5 9 11.4612 5.6985
-19 5 10 5.0662 0.3692
-19 5 11 -3.8897 -3.8508
-19 5 12 3.1254 5.9730
-19 5 13 12.1405 -10.8054
-19 5 14 3.3876 -4.5401
-19 6 1 -1.3693 9.1639
-19 6 2 -3.7063 2.6435
-19 6 3 -8.7978 -4.1376
-19 6 4 -7.2665 2.0934
-19 6 5 -4.5876 -1.6528
-19 6 6 0.0594 3.0542
-19 6 7 7.6268 6.6285
-19 6 8 -2.1111 -3.1031
-19 6 9 -4.7269 5.3196
-19 6 10 -0.6349 -1.6376
-19 6 11 -7.5886 0.8048
-19 6 12 0.1725 -3.0448
-19 6 13 -4.9954 4.4598
-19 6 14 3.5114 -2.2223
-19 7 1 -5.0130 0.3568
-19 7 2 8.5988 3.9336
-19 7 3 -0.8962 8.2166
-19 7 4 10.3552 -2.2042
-19 7 5 2.2742 -0.4568
-19 7 6 -11.3179 -0.8357
-19 7 7 3.4850 5.9866
-19 7 8 -1.8876 -5.2126
-19 7 9 2.1390 6.2483
-19 7 10 -1.9475 -8.0126
-19 7 11 0.1274 0.3760
-19 7 12 8.3413 1.9711
-19 7 13 0.8863 1.7991
-19 8 1 -0.8301 5.7693
-19 8 2 -5.0886 9.7322
-19 8 3 1.7189 18.8903
-19 8 4 -6.7820 -1.6323
-19 8 5 5.8524 2.9821
-19 8 6 -5.8616 6.1849
-19 8 7 -4.2267 2.9592
-19 8 8 -3.3375 -0.6869
-19 8 9 -3.8799 -5.4805
-19 8 10 -0.3433 -2.2849
-19 8 11 -1.8083 -4.1372
-19 8 12 -1.2041 4.8017
-19 9 1 -1.1934 12.0810
-19 9 2 -2.1199 -0.7660
-19 9 3 2.2685 -8.7596
-19 9 4 4.3723 -0.1374
-19 9 5 -0.0249 4.7247
-19 9 6 4.0103 3.3859
-19 9 7 5.8361 6.2564
-19 9 8 -11.4135 -6.7559
-19 9 9 -0.7707 -0.7856
-19 9 10 5.3247 -3.1993
-19 9 11 -0.3983 -2.2308
-19 9 12 -0.8274 1.5980
-19 10 1 -4.1588 -10.7912
-19 10 2 1.7629 -0.2587
-19 10 3 5.0607 2.0503
-19 10 4 0.8699 -0.0596
-19 10 5 -1.5475 7.6555
-19 10 6 2.2081 1.8591
-19 10 7 0.8003 14.4556
-19 10 8 -7.0783 -4.9910
-19 10 9 -5.8356 9.5439
-19 10 10 1.5674 -4.0359
-19 10 11 -2.2934 -4.7083
-19 11 1 7.0771 -7.0884
-19 11 2 -14.9562 -3.4932
-19 11 3 7.1949 1.5332
-19 11 4 -6.7746 -7.1531
-19 11 5 4.9030 5.3646
-19 11 6 -6.2706 -2.6852
-19 11 7 1.3065 -1.3798
-19 11 8 8.2672 -3.9567
-19 11 9 -0.1921 11.1976
-19 12 1 19.3565 -4.1582
-19 12 2 5.2214 -1.6581
-19 12 3 7.2157 11.3594
-19 12 4 3.4704 8.9561
-19 12 5 -4.1248 8.1222
-19 12 6 -2.0714 3.3653
-19 12 7 13.1462 2.9108
-19 12 8 0.6486 -0.2544
-19 13 1 0.5234 -5.7697
-19 13 2 -3.1291 -1.7750
-19 13 3 5.5982 -3.6911
-19 13 4 -7.2159 -0.5304
-19 13 5 2.5170 0.8470
-19 13 6 5.3079 -3.0781
-19 14 1 5.8559 -2.7452
-19 14 2 -5.1173 3.3877
-18 0 2 0.1779 11.7820
-18 0 4 -8.4333 -15.0564
-18 0 6 3.7393 -11.8144
-18 0 8 8.7605 -13.4280
-18 0 10 -1.1448 -2.3428
-18 0 12 19.8881 -20.7211
-18 0 14 -10.8831 -1.2909
-18 0 16 -4.7234 3.1885
-18 1 1 -6.7887 -1.3700
-18 1 2 -2.7723 -22.4327
-18 1 3 -5.5004 3.7092
-18 1 4 6.6694 -5.7935
-18 1 5 -2.2902 4.7665
-18 1 6 1.9221 -3.9122
-18 1 7 9.6504 5.3744
-18 1 8 -1.9331 -5.8509
-18 1 9 -1.2262 -5.8310
-18 1 10 6.3242 0.0392
-18 1 11 -1.6479 11.3268
-18 1 12 6.0212 -9.0063
-18 1 13 7.0574 -7.7294
-18 1 14 8.5090 7.2070
-18 1 15 11.3228 -2.9597
-18 1 16 -8.3210 -1.2078
-18 2 1 3.6486 -4.2077
-18 2 2 2.4353 -12.0379
-18 2 3 2.8514 1.4210
-18 2 4 -5.2426 3.2490
-18 2 5 -3.5847 0.8969
-18 2 6 -14.3707 -12.9974
-18 2 7 11.0159 -4.5229
-18 2 8 -2.5219 0.4752
-18 2 9 1.3373 -5.3488
-18 2 10 0.0704 -5.9675
-18 2 11 7.0209 -9.2807
-18 2 12 9.9056 -1.3415
-18 2 13 10.1408 -0.9915
-18 2 14 16.0956 -13.5798
-18 2 15 1.1963 4.6428
-18 2 16 8.3685 -7.9601
-18 3 1 -2.1624 -6.9941
-18 3 2 -4.8015 1.6359
-18 3 3 -16.8229 1.5644
-18 3 4 11.0907 2.7559
-18 3 5 -4.9995 -15.9208
-18 3 6 7.4184 -5.6913
-18 3 7 12.9961 2.1154
-18 3 8 14.6280 -1.2133
-18 3 9 -0.4894 2.3921
-18 3 10 1.6910 -7.6980
-18 3 11 5.9505 5.1080
-18 3 12 6.5980 4.6617
-18 3 13 -9.2633 -1.0131
-18 3 14 -4.6947 7.3105
-18 3 15 -5.5835 -1.3896
-18 3 16 -8.4285 2.1806
-18 4 1 2.3248 -0.3603
-18 4 2 -3.4879 1.9316
-18 4 3 -0.9916 3.0561
-18 4 4 5.5753 11.1882
-18 4 5 -4.7740 -4.2553
-18 4 6 -2.1803 -3.9652
-18 4 7 -6.2887 -2.5838
-18 4 8 0.9754 5.2966
-18 4 9 -1.3136 1.5716
-18 4 10 -0.1193 2.1389
-18 4 11 -1.1863 0.6222
-18 4 12 2.6807 -6.2535
-18 4 13 4.0081 -7.0982
-18 4 14 -7.2742 -19.2881
-18 4 15 0.2877 -0.1736
-18 4 16 17.3643 -10.4307
-18 5 1 -3.5227 -1.3908
-18 5 2 4.5293 6.0654
-18 5 3 4.1405 -12.7644
-18 5 4 -4.6418 -6.9739
-18 5 5 12.3989 6.2992
-18 5 6 1.0501 -1.3097
-18 5 7 1.7546 -6.8979
-18 5 8 1.0323 -3.6613
-18 5 9 -4.3963 11.5975
-18 5 10 3.8016 5.5201
-18 5 11 -12.6323 -1.0725
-18 5 12 8.6984 1.0781
-18 5 13 3.1388 7.7453
-18 5 14 6.8342 -1.2193
-18 5 15 -3.2585 -1.1211
-18 5 16 7.9408 -0.8869
-18 6 1 -0.0572 3.4390
-18 6 2 8.5133 -8.6926
-18 6 3 -9.8071 5.1353
-18 6 4 2.7836 0.2783
-18 6 5 -4.7315 -1.1260
-18 6 6 -5.4063 12.8993
-18 6 7 -1.1651 -0.8863
-18 6 8 0.6577 4.7693
-18 6 9 5.0605 -1.2438
-18 6 10 -6.9254 9.6442
-18 6 11 -1.2102 5.8940
-18 6 12 -3.3107 6.1065
-18 6 13 -2.4872 -3.2059
-18 6 14 5.1522 -3.6754
-18 6 15 4.5806 2.0052
-18 7 1 5.9081 12.6052
-18 7 2 1.3699 11.7216
-18 7 3 -0.2216 10.3862
-18 7 4 -0.6429 2.1508
-18 7 5 -3.9928 -10.3501
-18 7 6 1.3276 0.6390
-18 7 7 8.8693 -2.2625
-18 7 8 3.3573 0.9860
-18 7 9 2.2356 2.6290
-18 7 10 4.4069 2.1529
-18 7 11 -9.9499 -2.2092
-18 7 12 6.5975 -3.6859
-18 7 13 -6.1984 0.3398
-18 7 14 -4.0223 3.0821
-18 7 15 -6.9549 8.2757
-18 8 1 -1.4517 1.4375
-18 8 2 14.3704 -13.3993
-18 8 3 -4.3748 -0.6606
-18 8 4 1.6807 10.2563
-18 8 5 -11.1917 3.8820
-18 8 6 2.4715 5.5429
-18 8 7 -9.8243 -4.1375
-18 8 8 6.0521 2.3759
-18 8 9 4.3497 1.2196
-18 8 10 9.4358 -3.4981
-18 8 11 -4.4397 3.6596
-18 8 12 4.3645 -0.6990
-18 8 13 -5.9689 -0.7225
-18 8 14 -3.0454 4.9530
-18 9 1 5.7945 14.2713
-18 9 2 -10.3028 -8.9726
-18 9 3 -12.0000 5.0297
-18 9 4 -3.2406 5.3027
-18 9 5 6.9423 7.8740
-18 9 6 -0.8822 0.9942
-18 9 7 -5.7510 6.0045
-18 9 8 2.7499 2.9184
-18 9 9 2.9307 0.2605
-18 9 10 -5.6390 -5.1412
-18 9 11 -10.9041 -0.5636
-18 9 12 0.6802 4.7571
-18 9 13 0.2904 1.4940
-18 10 1 -7.2576 -7.3994
-18 10 2 -11.8615 2.9317
-18 10 3 -1.9452 -2.4719
-18 10 4 -1.8946 -1.1621
-18 10 5 -4.4638 -4.6643
-18 10 6 3.3021 -1.3057
-18 10 7 -2.5717 5.7739
-18 10 8 -1.5899 5.9870
-18 10 9 -1.5044 -3.0311
-18 10 10 4.1944 3.7804
-18 10 11 -0.7825 -4.8362
-18 10 12 -1.7938 9.1469
-18 11 1 -12.1829 4.5093
-18 11 2 1.6838 12.3537
-18 11 3 1.0467 10.0027
-18 11 4 -4.6507 0.5746
-18 11 5 -0.6703 12.4438
-18 11 6 4.6987 -5.7820
-18 11 7 2.7738 2.6172
-18 11 8 3.3255 7.7822
-18 11 9 -1.9189 0.0895
-18 11 10 1.5472 -1.0697
-18 11 11 -8.6165 3.1642
-18 12 1 -0.8611 -8.5559
-18 12 2 0.1624 -1.3353
-18 12 3 2.3311 -6.6722
-18 12 4 -4.2762 -4.7242
-18 12 5 0.1672 6.7187
-18 12 6 -0.9624 2.4773
-18 12 7 2.3559 -2.6539
-18 12 8 -1.4234 7.8730
-18 12 9 3.5232 2.7888
-18 12 10 -5.3844 3.4071
-18 13 1 -2.5765 0.9442
-18 13 2 6.1474 4.2901
-18 13 3 3.5318 -0.9494
-18 13 4 0.7207 9.1544
-18 13 5 -5.6754 2.4579
-18 13 6 -0.6144 5.2478
-18 13 7 1.1338 -6.1417
-18 13 8 3.8505 -0.2373
-18 13 9 6.5318 6.3113
-18 14 1 2.4601 -8.4902
-18 14 2 4.2986 3.2341
-18 14 3 8.9466 -7.2369
-18 14 4 7.1646 -5.2311
-18 14 5 -1.2992 5.1118
-18 14 6 1.0756 8.7894
-18 14 7 -3.0223 1.9697
-18 15 1 0.7260 -4.9691
-18 15 2 7.5124 5.4852
-18 15 3 -8.2627 -0.1671
-18 15 4 3.9824 1.0686
-17 0 2 2.5777 -5.7250
-17 0 4 1.5729 7.7178
-17 0 6 -1.3089 -8.5046
-17 0 8 -7.2637 6.2545
-17 0 10 -14.4583 -3.3646
-17 0 12 -1.7128 -7.2097
-17 0 14 -6.1651 1.5376
-17 0 16 -3.6909 0.6465
-17 0 18 1.1898 6.4486
-17 1 1 13.2689 -8.4838
-17 1 2 17.4954 5.9767
-17 1 3 0.4544 -3.8630
-17 1 4 2.6608 17.3145
-17 1 5 -5.9411 -5.7154
-17 1 6 2.5073 -1.4816
-17 1 7 8.5381 -11.2152
-17 1 8 -9.8305 -3.3335
-17 1 9 2.8322 6.0484
-17 1 10 9.5610 -12.5564
-17 1 11 -4.1832 -7.4374
-17 1 12 2.4080 3.9074
-17 1 13 9.6588 -3.0244
-17 1 14 -0.2200 -1.7496
-17 1 15 6.2268 -6.1113
-17 1 16 -7.8414 0.6637
-17 1 17 4.3502 0.7120
-17 1 18 -1.9970 0.0515
-17 2 1 7.6777 3.9636
-17 2 2 -4.2686 2.0060
-17 2 3 7.2144 11.6349
-17 2 4 -4.0360 1.6080
-17 2 5 -6.5169 0.5176
-17 2 6 -0.0039 2.4015
-17 2 7 6.0153 -11.2885
-17 2 8 -0.8853 -0.0324
-17 2 9 7.2977 8.6717
-17 2 10 1.2599 -0.6420
-17 2 11 -0.8895 13.0004
-17 2 12 -0.5574 0.4263
-17 2 13 2.9575 -2.2049
-17 2 14 2.3932 9.6168
-17 2 15 13.3165 -9.8233
-17 2 16 -2.3464 5.1723
-17 2 17 -0.4344 11.8278
-17 3 1 12.8610 -0.1428
-17 3 2 0.1308 -2.2651
-17 3 3 0.4610 10.7921
-17 3 4 -6.6143 -14.4577
-17 3 5 -9.0320 -1.2038
-17 3 6 -13.2693 3.5023
-17 3 7 9.2306 -5.0230
-17 3 8 -0.4604 2.9257
-17 3 9 8.8277 0.4198
-17 3 10 2.6315 16.5142
-17 3 11 -2.6552 4.9401
-17 3 12 -2.9471 5.0448
-17 3 13 -3.8912 0.2024
-17 3 14 -5.1984 -6.7149
-17 3 15 0.8162 -1.7856
-17 3 16 2.0043 1.0159
-17 3 17 -0.7752 5.2381
-17 4 1 15.6998 6.5556
-17 4 2 2.8447 -7.7599
-17 4 3 -5.2706 8.9070
-17 4 4 -6.1931 3.4599
-17 4 5 2.3382 2.6618
-17 4 6 -6.1773 0.9354
-17 4 7 8.3372 -13.9386
-17 4 8 -7.3569 0.1709
-17 4 9 2.5195 -17.9956
-17 4 10 -4.3081 1.2345
-17 4 11 -2.3494 7.2314
-17 4 12 -3.3544 -1.4447
-17 4 13 -10.8631 -4.2830
-17 4 14 2.6834 -4.7945
-17 4 15 14.2638 2.6874
-17 4 16 -5.7860 8.9702
-17 4 17 10.8597 5.0727
-17 5 1 5.7044 5.0184
-17 5 2 9.4928 -7.0465
-17 5 3 -2.8921 -0.0919
-17 5 4 -2.4313 -2.1481
-17 5 5 -4.6725 7.4771
-17 5 6 -0.5834 5.7383
-17 5 7 -5.3626 -6.3189
-17 5 8 -4.6207 -3.4545
-17 5 9 9.1647 2.7612
-17 5 10 -7.4595 10.7402
-17 5 11 -2.1655 -3.9469
-17 5 12 -11.0021 1.2009
-17 5 13 8.3050 6.9491
-17 5 14 6.2067 -5.6212
-17 5 15 1.7283 4.6076
-17 5 16 2.2046 -6.6775
-17 5 17 -3.4938 6.7345
-17 6 1 7.3470 -2.0852
-17 6 2 0.3074 0.3097
-17 6 3 0.0399 20.7491
-17 6 4 0.1710 1.6423
-17 6 5 -8.4435 -3.2946
-17 6 6 -1.1754 1.0628
-17 6 7 8.9967 -2.7801
-17 6 8 1.7123 1.2787
-17 6 9 2.2341 -7.3030
-17 6 10 -4.9486 -3.8983
-17 6 11 -3.7968 0.5013
-17 6 12 5.7091 -5.1631
-17 6 13 -0.4232 -3.5330
-17 6 14 6.3370 0.7021
-17 6 15 11.0770 -0.2561
-17 6 16 4.6749 -6.7888
-17 7 1 -6.1028 4.9174
-17 7 2 -8.6503 0.8453
-17 7 3 -5.4061 -0.1529
-17 7 4 15.2899 -5.3481
-17 7 5 -5.7315 0.6841
-17 7 6 9.2309 7.4590
-17 7 7 1.9189 -3.6129
-17 7 8 2.9931 -3.9851
-17 7 9 -7.2656 2.0797
-17 7 10 8.3770 9.4000
-17 7 11 3.1050 -1.6722
-17 7 12 -8.6913 5.1229
-17 7 13 3.7705 7.1199
-17 7 14 -6.4700 -5.3133
-17 7 15 -3.2794 14.9478
-17 7 16 0.5516 -3.2867
-17 8 1 0.4593 9.9217
-17 8 2 0.9203 1.8356
-17 8 3 -10.7991 8.3688
-17 8 4 0.1478 -1.0238
-17 8 5 -4.5584 2.4765
-17 8 6 -1.9338 -1.5691
-17 8 7 -2.5254 4.9154
-17 8 8 5.2596 3.4041
-17 8 9 -6.5201 -3.4836
-17 8 10 -3.9817 -3.0819
-17 8 11 1.0418 -1.0547
-17 8 12 -2.3801 -4.3609
-17 8 13 -7.7301 7.2475
-17 8 14 -7.3929 2.9566
-17 8 15 -3.8115 -9.2370
-17 9 1 -10.3429 -6.4899
-17 9 2 7.9184 -1.7968
-17 9 3 2.1665 0.7042
-17 9 4 9.1173 9.8117
-17 9 5 -8.0200 -5.8851
-17 9 6 -10.8783 5.6419
-17 9 7 -5.3441 2.1956
-17 9 8 -1.9358 -12.4977
-17 9 9 -0.0778 -2.8482
-17 9 10 11.1104 2.6851
-17 9 11 -1.4385 1.0175
-17 9 12 -4.8614 -1.6366
-17 9 13 -0.8485 2.8551
-17 9 14 1.3837 -10.8853
-17 9 15 -2.5176 -0.8172
-17 10 1 -2.1932 -16.4369
-17 10 2 -2.3478 1.7233
-17 10 3 -0.5953 -4.8203
-17 10 4 -2.9060 2.7513
-17 10 5 -5.7061 4.8203
-17 10 6 3.7963 -1.0076
-17 10 7 -10.5651 -1.2925
-17 10 8 2.3391 -0.2283
-17 10 9 -11.8589 -2.4245
-17 10 10 -1.0253 8.4474
-17 10 11 -3.7003 1.4715
-17 10 12 -2.5979 2.2587
-17 10 13 0.5262 -1.4724
-17 10 14 -3.4382 -3.0813
-17 11 1 5.4579 -3.2224
-17 11 2 1.1020 -8.8249
-17 11 3 -9.6839 -6.7198
-17 11 4 -10.8498 -2.0169
-17 11 5 -6.8556 -7.1914
-17 11 6 0.7257 -7.5179
-17 11 7 5.7491 -7.1526
-17 11 8 2.5866 17.1206
-17 11 9 -0.7928 0.6770
-17 11 10 -7.1501 1.5983
-17 11 11 -8.1564 -2.8871
-17 11 12 4.1731 -6.0889
-17 11 13 -9.5782 -1.1905
-17 12 1 -5.3782 -4.2065
-17 12 2 0.6507 2.8887
-17 12 3 1.4012 -4.8664
-17 12 4 -3.1130 2.3205
-17 12 5 -4.8810 -2.7742
-17 12 6 1.8916 -8.3940
-17 12 7 -1.2133 6.7143
-17 12 8 11.3432 4.8590
-17 12 9 -1.0262 7.4589
-17 12 10 2.0955 0.2927
-17 12 11 -5.2364 -7.3210
-17 12 12 -6.9983 -2.9570
-17 13 1 3.2472 0.5642
-17 13 2 -10.8256 -0.9025
-17 13 3 -3.3369 -0.3614
-17 13 4 -4.1411 -0.2256
-17 13 5 -2.1350 -4.5801
-17 13 6 4.3979 9.1467
-17 13 7 -5.1240 -6.0436
-17 13 8 1.8949 10.0621
-17 13 9 2.2023 -8.2942
-17 13 10 -3.2124 -6.0130
-17 13 11 -0.5387 3.7816
-17 14 1 2.2557 -3.7382
-17 14 2 -1.0310 1.0532
-17 14 3 -1.9304 -3.0449
-17 14 4 -1.8572 0.5141
-17 14 5 -4.7994 8.0527
-17 14 6 0.0143 0.1488
-17 14 7 -13.2580 -5.0206
-17 14 8 -4.7674 4.0587
-17 14 9 0.1913 -13.9883
-17 15 1 -4.0690 10.3243
-17 15 2 0.6873 7.9595
-17 15 3 -9.0823 -3.7318
-17 15 4 -3.6141 4.1658
-17 15 5 -0.3870 -2.3057
-17 15 6 0.8165 -0.7439
-17 15 7 -2.8763 5.3351
-17 16 1 0.3796 0.6190
-17 16 2 5.5233 6.8996
-17 16 3 -1.1577 2.0081
-17 16 4 -0.0830 -0.1367
-17 16 5 0.2277 1.6548
-16 0 2 -13.8343 1.2873
-16 0 4 -0.2789 -4.8807
-16 0 6 -18.6098 -5.1926
-16 0 8 8.0311 0.2541
-16 0 10 -8.5686 -5.7639
-16 0 12 11.2685 -13.7281
-16 0 14 -16.1510 -21.8144
-16 0 16 1.7001 2.4925
-16 0 18 -2.6784 -6.4558
-16 1 1 8.1391 3.8240
-16 1 2 -3.4433 3.1134
-16 1 3 -6.0470 2.8928
-16 1 4 -5.1441 5.8605
-16 1 5 7.3972 13.0790
-16 1 6 -2.4149 6.2544
-16 1 7 1.0228 -1.1052
-16 1 8 -9.3140 1.7990
-16 1 9 3.7410 0.4365
-16 1 10 -11.7348 1.4609
-16 1 11 -12.5125 -1.2203
-16 1 12 6.3506 -10.1003
-16 1 13 9.2905 0.4751
-16 1 14 2.3056 3.1032
-16 1 15 -8.2064 7.8328
-16 1 16 3.0189 -0.7211
-16 1 17 -7.6293 8.1657
-16 1 18 -1.9214 -1.7053
-16 1 19 -1.6268 -4.1709
-16 2 1 -5.1352 -1.9925
-16 2 2 -1.0572 -5.0290
-16 2 3 -4.2424 1.3492
-16 2 4 1.3825 -10.3237
-16 2 5 0.7012 5.3900
-16 2 6 4.2800 -6.6605
-16 2 7 4.3575 11.0712
-16 2 8 -12.1421 -4.9251
-16 2 9 3.0406 5.4475
-16 2 10 1.5377 -0.0530
-16 2 11 4.1960 5.7838
-16 2 12 -1.9642 -7.2803
-16 2 13 -0.6288 2.0685
-16 2 14 19.7841 -1.8653
-16 2 15 -0.2960 5.7300
-16 2 16 1.4489 -13.0956
-16 2 17 -1.3828 1.1555
-16 2 18 0.0023 13.6300
-16 2 19 1.1297 5.0624
-16 3 1 5.4759 1.2323
-16 3 2 -13.3479 -12.7001
-16 3 3 -4.9520 -3.3248
-16 3 4 3.0152 7.0948
-16 3 5 13.1882 -4.7558
-16 3 6 1.8229 7.6211
-16 3 7 -3.7018 14.3925
-16 3 8 -0.3596 -3.0560
-16 3 9 4.7951 2.5493
-16 3 10 5.6407 -2.7835
-16 3 11 -7.8535 6.9203
-16 3 12 1.4818 -0.0320
-16 3 13 -1.9594 1.9138
-16 3 14 0.9364 -2.5938
-16 3 15 0.2440 3.1185
-16 3 16 -0.9790 0.7424
-16 3 17 -7.2487 0.9265
-16 3 18 4.1457 4.4913
-16 4 1 0.2427 -8.4307
-16 4 2 -6.6801 -11.7626
-16 4 3 0.4878 -1.6888
-16 4 4 6.2241 -0.9110
-16 4 5 5.2616 4.2800
-16 4 6 15.1906 7.9293
-16 4 7 5.3146 0.6849
-16 4 8 -11.2360 5.2247
-16 4 9 -3.8689 2.5538
-16 4 10 -6.2889 -9.9109
-16 4 11 -0.6453 -0.7709
-16 4 12 7.7843 -6.4253
-16 4 13 -4.1348 8.3278
-16 4 14 13.2271 -5.0930
-16 4 15 -10.5758 -3.8265
-16 4 16 -0.9237 12.9567
-16 4 17 -3.6297 1.5159
-16 4 18 11.3582 2.3043
-16 5 1 9.7562 -9.8675
-16 5 2 0.9516 5.9309
-16 5 3 16.0634 0.1888
-16 5 4 9.6050 -9.2299
-16 5 5 -9.6680 7.6631
-16 5 6 -7.0184 1.0097
-16 5 7 -2.5413 -16.4412
-16 5 8 -1.1540 -9.1200
-16 5 9 -7.8178 -7.1689
-16 5 10 -0.3123 -15.2324
-16 5 11 1.9892 4.2413
-16 5 12 -1.5114 0.4468
-16 5 13 2.8000 15.4808
-16 5 14 2.6995 -1.8462
-16 5 15 -5.8702 12.1791
-16 5 16 -1.0409 -4.4252
-16 5 17 -9.3904 0.1451
-16 5 18 -0.9667 -1.0914
-16 6 1 -0.1152 4.1631
-16 6 2 -9.5626 -0.1942
-16 6 3 -4.2129 -3.9785
-16 6 4 4.1248 -3.2313
-16 6 5 -2.7108 3.2262
-16 6 6 3.1531 9.1078
-16 6 7 3.5259 -0.1308
-16 6 8 9.5663 -0.3363
-16 6 9 -0.3485 -0.4824
-16 6 10 4.9101 -9.7860
-16 6 11 -2.6996 2.5663
-16 6 12 10.3678 5.0888
-16 6 13 -4.7748 5.0917
-16 6 14 -9.7691 9.9723
-16 6 15 -1.3342 -7.1081
-16 6 16 -4.3315 -13.6585
-16 6 17 8.3449 -0.0565
-16 6 18 -0.4421 3.7116
-16 7 1 1.0594 -5.5907
-16 7 2 -4.4149 -4.0983
-16 7 3 11.0727 2.0365
-16 7 4 -4.9971 -2.4251
-16 7 5 10.2948 0.1525
-16 7 6 10.4518 -3.3345
-16 7 7 12.3570 0.5623
-16 7 8 0.7911 -0.5839
-16 7 9 11.1855 2.6544
-16 7 10 5.3139 0.1334
-16 7 11 -4.2010 5.5798
-16 7 12 6.2322 2.4653
-16 7 13 2.6725 6.3943
-16 7 14 -6.5965 -4.7540
-16 7 15 -0.4408 15.4158
-16 7 16 -1.3093 4.3101
-16 7 17 -5.2327 -2.9097
-16 8 1 -0.6605 1.8979
-16 8 2 -6.4066 3.3984
-16 8 3 -0.7258 5.0560
-16 8 4 -6.0052 -7.4992
-16 8 5 -0.4920 -1.0025
-16 8 6 -1.6615 6.7630
-16 8 7 2.9041 -2.0238
-16 8 8 17.0499 15.4542
-16 8 9 -0.2106 0.0005
-16 8 10 9.5379 13.5038
-16 8 11 4.8445 -10.5312
-16 8 12 1.5492 1.7381
-16 8 13 0.3043 -1.7215
-16 8 14 -8.8185 1.4170
-16 8 15 2.6392 -1.1902
-16 8 16 -5.9479 2.1007
-16 8 17 4.3213 6.9054
-16 9 1 -7.1224 -5.1355
-16 9 2 13.3247 2.7849
-16 9 3 -3.7695 -6.3355
-16 9 4 -4.5173 1.2401
-16 9 5 7.3427 -0.9498
-16 9 6 -5.9467 -0.7928
-16 9 7 8.4769 2.6135
-16 9 8 -8.9969 10.6815
-16 9 9 3.0798 7.7866
-16 9 10 -10.5396 7.1795
-16 9 11 -1.8606 -2.7670
-16 9 12 -11.4843 6.5792
-16 9 13 3.7813 0.7318
-16 9 14 -0.9283 6.6883
-16 9 15 -1.5858 3.9358
-16 9 16 -4.5839 0.8248
-16 10 1 3.7619 -3.2322
-16 10 2 1.6243 -15.7445
-16 10 3 3.5005 4.2984
-16 10 4 -9.2331 4.9877
-16 10 5 4.0771 -2.3852
-16 10 6 -3.0889 -4.0847
-16 10 7 -3.9613 8.3055
-16 10 8 1.4136 -7.9421
-16 10 9 2.4955 -8.5933
-16 10 10 -3.9458 7.7427
-16 10 11 8.8721 -2.5716
-16 10 12 -8.8377 -16.0879
-16 10 13 0.1537 -3.2454
-16 10 14 3.4679 7.2106
-16 10 15 6.0994 -4.8377
-16 11 1 -7.8758 -5.2032
-16 11 2 -8.8970 -4.3838
-16 11 3 0.1631 6.0719
-16 11 4 10.4530 -4.0069
-16 11 5 2.5496 4.8908
-16 11 6 5.5100 7.6585
-16 11 7 10.1940 1.6431
-16 11 8 -12.0896 5.8482
-16 11 9 -3.1186 -1.3444
-16 11 10 -0.7022 1.5378
-16 11 11 6.7665 -7.4540
-16 11 12 -9.3510 0.5916
-16 11 13 6.8099 12.9374
-16 11 14 -8.3203 -6.0427
-16 11 15 -1.2488 14.4838
-16 12 1 -1.6559 -8.6997
-16 12 2 6.0118 3.6598
-16 12 3 0.6538 -2.3993
-16 12 4 -0.8348 -5.0237
-16 12 5 -4.1861 -0.4395
-16 12 6 -3.4528 -8.0412
-16 12 7 7.1349 0.2247
-16 12 8 -2.2210 -10.4184
-16 12 9 6.7751 -2.6532
-16 12 10 5.5759 -4.5139
-16 12 11 6.9671 0.4054
-16 12 12 -6.5240 1.8717
-16 12 13 -7.8844 -2.0635
-16 12 14 4.4688 -7.5221
-16 13 1 3.8829 5.1903
-16 13 2 2.6658 -0.4821
-16 13 3 3.6875 -2.5610
-16 13 4 8.1711 -11.8959
-16 13 5 0.0235 -6.0682
-16 13 6 4.0585 1.3603
-16 13 7 -0.4643 -8.8381
-16 13 8 2.0929 -4.4721
-16 13 9 1.1538 3.7724
-16 13 10 -0.0176 -10.8811
-16 13 11 0.2939 10.2963
-16 13 12 -7.9955 -2.5829
-16 13 13 3.7207 6.0316
-16 14 1 -2.7593 -3.8605
-16 14 2 11.3277 -8.3720
-16 14 3 -1.6024 -4.3397
-16 14 4 17.5419 1.7145
-16 14 5 3.3126 -1.9763
-16 14 6 6.9346 9.6938
-16 14 7 7.5009 -2.9171
-16 14 8 -0.9143 2.6672
-16 14 9 14.1478 0.6325
-16 14 10 2.8135 4.7149
-16 14 11 6.8339 9.3881
-16 15 1 12.0854 -0.5664
-16 15 2 1.3332 2.3727
-16 15 3 1.7296 -8.4060
-16 15 4 5.5364 7.6070
-16 15 5 -0.0041 0.7469
-16 15 6 7.2492 4.5227
-16 15 7 3.3166 5.9873
-16 15 8 -1.6505 -3.7494
-16 15 9 -0.2310 12.8133
-16 15 10 0.9630 1.1230
-16 16 1 -3.6599 -4.4133
-16 16 2 11.5717 -10.9670
-16 16 3 -0.9209 0.7906
-16 16 4 3.9964 -3.0277
-16 16 5 5.3195 1.7323
-16 16 6 0.5962 5.3496
-16 16 7 2.5632 0.4770
-16 16 8 -4.0953 7.5908
-16 17 1 -8.3264 -9.3706
-16 17 2 7.1422 0.3343
-16 17 3 10.5390 -0.2839
-16 17 4 3.1319 -1.8370
-16 17 5 7.1554 10.7300
-15 0 2 -2.4288 6.3548
-15 0 4 -2.4091 4.3986
-15 0 6 11.7859 -1.8676
-15 0 8 7.1061 -0.8897
-15 0 10 4.1006 -3.6102
-15 0 12 16.2584 -2.6341
-15 0 14 10.0692 11.2941
-15 0 16 -1.4388 -0.2769
-15 0 18 -0.7528 -6.9332
-15 0 20 3.8664 -6.1192
-15 1 1 -2.7794 4.4199
-15 1 2 -16.4663 -1.1619
-15 1 3 12.6089 9.0419
-15 1 4 -11.0079 -7.7342
-15 1 5 2.2306 -2.7661
-15 1 6 8.9234 9.5455
-15 1 7 3.8635 4.2149
-15 1 8 -19.0294 12.6358
-15 1 9 -14.7287 -10.3829
-15 1 10 -12.1291 -1.3711
-15 1 11 -2.0435 5.3452
-15 1 12 10.7843 -4.4836
-15 1 13 -1.7819 -2.1645
-15 1 14 -2.7969 8.2893
-15 1 15 1.4031 -0.6669
-15 1 16 3.9800 -0.5437
-15 1 17 3.3738 -4.5352
-15 1 18 2.6684 5.6533
-15 1 19 -3.4650 8.6694
-15 1 20 1.3615 -3.2496
-15 2 1 0.8758 -2.0695
-15 2 2 -5.7484 0.1407
-15 2 3 5.6733 11.2823
-15 2 4 5.1631 -8.3131
-15 2 5 5.9887 -7.7845
-15 2 6 2.8031 -3.3707
-15 2 7 -6.4977 9.1801
-15 2 8 7.6331 0.8248
-15 2 9 -7.5409 -8.1004
-15 2 10 3.1945 5.0123
-15 2 11 -6.2838 3.5464
-15 2 12 2.9401 -0.4771
-15 2 13 1.6294 3.8375
-15 2 14 -7.3394 -0.0036
-15 2 15 3.7373 0.6597
-15 2 16 -0.8158 0.2574
-15 2 17 -0.0963 -15.4714
-15 2 18 0.2680 -2.9990
-15 2 19 5.7417 1.7534
-15 3 1 2.0229 6.9299
-15 3 2 5.0609 -5.5242
-15 3 3 -5.9970 -14.3949
-15 3 4 8.2577 11.9587
-15 3 5 -6.2370 9.4952
-15 3 6 1.4641 -1.1166
-15 3 7 -11.8675 0.8567
-15 3 8 -5.1219 26.4299
-15 3 9 -2.0865 4.5937
-15 3 10 -17.2757 0.1966
-15 3 11 -3.2781 5.1051
-15 3 12 -5.4584 6.9847
-15 3 13 -8.5082 4.0610
-15 3 14 -8.3568 -11.7933
-15 3 15 2.0212 1.6240
-15 3 16 -1.1987 -7.3046
-15 3 17 9.0861 -3.9103
-15 3 18 -1.7103 -3.5501
-15 3 19 10.9793 2.5728
-15 4 1 -2.8544 1.1444
-15 4 2 0.1893 -3.5404
-15 4 3 9.0325 0.8101
-15 4 4 -1.8065 -0.5996
-15 4 5 0.8463 19.8695
-15 4 6 -5.1291 -1.6363
-15 4 7 8.9333 -7.9805
-15 4 8 3.8578 0.4253
-15 4 9 1.0938 -9.8452
-15 4 10 -1.8726 5.8532
-15 4 11 11.4881 0.4279
-15 4 12 0.8677 1.6292
-15 4 13 -5.2329 -1.2665
-15 4 14 6.6576 0.3449
-15 4 15 -9.8775 -14.6153
-15 4 16 0.7593 -4.6823
-15 4 17 7.0395 -5.2620
-15 4 18 -2.7740 2.0309
-15 4 19 -1.6988 -6.2345
-15 5 1 8.4646 -2.9501
-15 5 2 9.7312 6.7496
-15 5 3 -5.5631 9.7866
-15 5 4 -7.6237 -4.0233
-15 5 5 -2.4713 3.9077
-15 5 6 -6.8732 -14.1619
-15 5 7 1.4263 5.3558
-15 5 8 3.4879 -4.2906
-15 5 9 0.2913 1.7838
-15 5 10 -10.4477 -12.5292
-15 5 11 5.4323 1.1917
-15 5 12 -8.1642 -3.7343
-15 5 13 0.7612 7.9730
-15 5 14 -3.5669 -2.3588
-15 5 15 -4.4826 11.2434
-15 5 16 -4.8128 -1.3505
-15 5 17 -6.2168 -10.7759
-15 5 18 -5.3719 -5.0882
-15 5 19 8.4105 1.5861
-15 6 1 19.2213 0.6546
-15 6 2 1.6790 -0.9941
-15 6 3 -1.3663 8.3856
-15 6 4 0.2345 -0.5823
-15 6 5 0.6398 9.6402
-15 6 6 1.5693 0.6999
-15 6 7 -3.3139 6.4290
-15 6 8 0.2718 2.8143
-15 6 9 11.3482 -6.0668
-15 6 10 -0.8716 -5.2466
-15 6 11 3.4356 -5.9686
-15 6 12 -0.4190 3.0336
-15 6 13 13.3956 25.4824
-15 6 14 -6.2400 -0.2903
-15 6 15 9.7282 1.7948
-15 6 16 8.3409 2.6199
-15 6 17 13.0969 0.3729
-15 6 18 0.2631 10.0222
-15 6 19 -1.5101 5.9411
-15 7 1 -2.9017 -12.6234
-15 7 2 -2.1379 -0.5309
-15 7 3 2.3888 3.8914
-15 7 4 6.5757 5.5884
-15 7 5 -0.1788 -2.1844
-15 7 6 -3.7109 17.6977
-15 7 7 17.9611 14.6690
-15 7 8 6.0952 -5.1603
-15 7 9 -2.1023 -0.6275
-15 7 10 5.6096 3.6914
-15 7 11 4.0235 -14.7726
-15 7 12 -1.6883 3.7024
-15 7 13 11.7894 4.7703
-15 7 14 -10.0645 8.4893
-15 7 15 -11.3932 4.6773
-15 7 16 -10.7961 6.1767
-15 7 17 -0.6491 -8.2646
-15 7 18 -13.7473 5.9203
-15 8 1 -8.5075 -2.8461
-15 8 2 -3.0400 3.8266
-15 8 3 -4.4017 7.6362
-15 8 4 -2.2204 -5.1028
-15 8 5 -2.6706 5.3014
-15 8 6 1.3413 4.7304
-15 8 7 -10.0078 -3.2383
-15 8 8 -4.3475 -2.2255
-15 8 9 6.2162 -5.4047
-15 8 10 6.5243 -11.6757
-15 8 11 3.9147 3.2649
-15 8 12 -0.8008 3.8992
-15 8 13 3.7655 2.7112
-15 8 14 -4.3112 -5.0633
-15 8 15 9.2364 -2.8157
-15 8 16 0.0546 3.5733
-15 8 17 9.3246 0.5184
-15 8 18 -5.3350 1.0149
-15 9 1 -4.0433 -4.2493
-15 9 2 5.4982 1.2535
-15 9 3 -6.1928 -4.2925
-15 9 4 0.6247 8.8037
-15 9 5 8.7299 -5.0325
-15 9 6 -0.5883 -9.1497
-15 9 7 1.9545 5.9421
-15 9 8 12.8320 -4.6621
-15 9 9 -0.5396 -1.1798
-15 9 10 11.6217 2.7601
-15 9 11 -2.4809 -2.8831
-15 9 12 2.0229 12.4777
-15 9 13 14.3657 -1.3866
-15 9 14 -0.3305 2.1383
-15 9 15 8.1693 9.0483
-15 9 16 -5.3008 11.9960
-15 9 17 -0.8863 1.1031
-15 10 1 -2.9767 7.6499
-15 10 2 0.3026 3.0630
-15 10 3 1.1215 -11.7034
-15 10 4 -0.9133 2.3934
-15 10 5 6.5972 -5.8130
-15 10 6 3.0491 5.5046
-15 10 7 -5.3542 13.5300
-15 10 8 -5.6575 -3.6014
-15 10 9 -7.3646 -5.1700
-15 10 10 -0.0987 -6.0068
-15 10 11 -8.1131 10.8148
-15 10 12 2.4038 0.3229
-15 10 13 -1.9076 7.7234
-15 10 14 1.0786 7.3199
-15 10 15 2.8713 1.7690
-15 10 16 -7.9365 7.9279
-15 11 1 -0.6297 7.4362
-15 11 2 4.3646 6.6276
-15 11 3 -8.9401 -13.2343
-15 11 4 -3.0778 5.4332
-15 11 5 1.5198 -0.1259
-15 11 6 -6.8702 4.3009
-15 11 7 -8.1401 3.3185
-15 11 8 -5.4157 5.2784
-15 11 9 -13.5071 4.7274
-15 11 10 4.4487 -2.1298
-15 11 11 -4.1798 3.6291
-15 11 12 4.7242 -1.7091
-15 11 13 -8.9024 7.3397
-15 11 14 -1.9737 -6.1485
-15 11 15 -8.2172 7.4131
-15 11 16 10.0356 2.7512
-15 12 1 1.1668 -1.1291
-15 12 2 -1.6955 1.4591
-15 12 3 3.7391 -3.8284
-15 12 4 8.7341 2.1644
-15 12 5 15.4077 -4.3163
-15 12 6 2.9881 2.4476
-15 12 7 -7.9043 2.5469
-15 12 8 -3.9580 2.4669
-15 12 9 -14.6479 -10.6763
-15 12 10 4.9968 1.1797
-15 12 11 18.2296 -12.5844
-15 12 12 3.4700 -7.2298
-15 12 13 3.9119 -2.6615
-15 12 14 6.0416 0.7057
-15 12 15 8.4115 -2.9899
-15 13 1 2.3702 -2.7263
-15 13 2 -7.8720 -16.5483
-15 13 3 2.8446 -4.3173
-15 13 4 -3.9916 10.9529
-15 13 5 2.2752 -3.9711
-15 13 6 -0.7768 7.8055
-15 13 7 3.3429 -7.1483
-15 13 8 5.7753 8.0211
-15 13 9 12.8233 -8.6486
-15 13 10 4.9484 -0.2343
-15 13 11 7.4587 -0.4611
-15 13 12 3.6657 -8.0358
-15 13 13 3.2663 11.5003
-15 13 14 3.8112 1.5403
-15 14 1 8.6350 -1.0481
-15 14 2 -1.5508 0.7176
-15 14 3 -2.8219 -2.7361
-15 14 4 3.5049 -3.2306
-15 14 5 -3.1925 -8.2850
-15 14 6 1.7501 0.5521
-15 14 7 17.8930 -12.1558
-15 14 8 0.7660 -1.4514
-15 14 9 14.2923 -2.4749
-15 14 10 3.7922 -3.9015
-15 14 11 3.6849 -11.1581
-15 14 12 1.5228 3.4439
-15 14 13 12.7358 -6.6503
-15 15 1 1.0155 -10.3260
-15 15 2 -5.1331 -1.8202
-15 15 3 6.2615 -5.0818
-15 15 4 8.9006 -9.4824
-15 15 5 5.9269 6.2716
-15 15 6 10.6188 1.4670
-15 15 7 0.5349 -1.3696
-15 15 8 2.4511 -0.7728
-15 15 9 0.8831 1.0269
-15 15 10 -8.5838 2.2879
-15 15 11 11.7032 -8.2435
-15 16 1 0.7130 3.7396
-15 16 2 -5.1830 8.7364
-15 16 3 7.6235 1.0146
-15 16 4 -3.2461 9.4442
-15 16 5 11.1686 0.5707
-15 16 6 -10.2444 9.7055
-15 16 7 3.8207 9.5009
-15 16 8 6.0954 0.2671
-15 16 9 -14.6966 9.3768
-15 16 10 -2.9018 8.6704
-15 17 1 -4.6160 -1.0353
-15 17 2 11.1510 2.6975
-15 17 3 -3.0356 -5.0861
-15 17 4 2.3724 5.3989
-15 17 5 -3.0742 3.1602
-15 17 6 0.2152 -1.0096
-15 17 7 4.7396 10.9338
-15 17 8 -0.2522 4.0754
-15 18 1 1.9363 -7.9585
-15 18 2 -1.3814 0.0200
-15 18 3 3.6268 2.8943
-15 18 4 -6.2780 5.0116
-14 0 2 11.4041 4.0188
-14 0 4 -14.2301 1.9616
-14 0 6 1.2892 -3.5045
-14 0 8 -10.7071 -9.5021
-14 0 10 9.3537 8.7806
-14 0 12 8.1406 1.7165
-14 0 14 18.3743 -14.8903
-14 0 16 -19.1868 4.7568
-14 0 18 8.1919 3.6572
-14 0 20 -9.4866 22.4365
-14 1 1 -0.2575 -3.2386
-14 1 2 2.1626 3.5968
-14 1 3 7.1973 -14.6691
-14 1 4 -12.0319 1.7617
-14 1 5 -17.7947 5.4468
-14 1 6 10.6376 -11.2129
-14 1 7 9.7161 -12.6807
-14 1 8 9.1602 3.6286
-14 1 9 1.9063 -1.3771
-14 1 10 -3.0757 -1.1020
-14 1 11 -5.5029 -1.9208
-14 1 12 1.6297 -2.3637
-14 1 13 -2.5100 2.1405
-14 1 14 0.2683 -4.2602
-14 1 15 6.1543 -7.5323
-14 1 16 -7.6708 -4.2964
-14 1 17 -12.8123 2.4861
-14 1 18 5.5358 -12.9604
-14 1 19 0.9072 -6.2716
-14 1 20 7.6998 6.6104
-14 2 1 -3.5284 -6.2791
-14 2 2 -3.3848 5.2877
-14 2 3 -4.0769 -4.9882
-14 2 4 5.3592 -3.2341
-14 2 5 -4.3291 0.5072
-14 2 6 8.3171 -10.8706
-14 2 7 -0.3317 2.9679
-14 2 8 2.2700 -3.3777
-14 2 9 -5.2743 2.6957
-14 2 10 1.4718 2.7753
-14 2 11 -5.0847 -1.5819
-14 2 12 -11.5929 -2.0977
-14 2 13 6.9222 -7.2858
-14 2 14 4.3973 15.4105
-14 2 15 -0.5798 4.8691
-14 2 16 9.1631 13.8930
-14 2 17 4.2736 1.8936
-14 2 18 -8.9255 8.7032
-14 2 19 -1.3204 3.9720
-14 2 20 2.6494 7.7542
-14 3 1 4.5372 -21.2602
-14 3 2 2.2979 8.6686
-14 3 3 -3.3669 -10.3844
-14 3 4 -7.1626 -2.0150
-14 3 5 -3.6725 4.5933
-14 3 6 5.8861 -9.2304
-14 3 7 -19.0019 -13.0137
-14 3 8 9.6832 -1.5568
-14 3 9 -7.2513 6.6643
-14 3 10 -6.9744 -12.4921
-14 3 11 4.1321 7.5743
-14 3 12 2.3009 -6.8032
-14 3 13 7.2746 -6.7661
-14 3 14 4.6699 -4.1986
-14 3 15 4.1423 17.6691
-14 3 16 -7.5068 -7.3132
-14 3 17 -16.6995 -0.8401
-14 3 18 4.4211 -1.9034
-14 3 19 0.2224 -4.5853
-14 3 20 -2.3136 2.9045
-14 4 1 0.8140 2.3643
-14 4 2 -15.7273 10.9291
-14 4 3 0.8420 0.5265
-14 4 4 -16.0380 0.2532
-14 4 5 0.1191 -3.3257
-14 4 6 10.3737 5.2120
-14 4 7 10.0777 0.6944
-14 4 8 7.7082 -11.3208
-14 4 9 -5.1348 -3.7944
-14 4 10 -6.7838 -5.4852
-14 4 11 4.5835 -6.2874
-14 4 12 1.1816 -10.0779
-14 4 13 1.1411 6.8217
-14 4 14 -0.2404 -4.4829
-14 4 15 -4.1375 -6.4713
-14 4 16 -8.1365 -4.4953
-14 4 17 0.0060 -7.4343
-14 4 18 -9.7479 13.8847
-14 4 19 -0.4748 0.5221
-14 4 20 -7.0911 -7.3274
-14 5 1 -12.1341 11.2219
-14 5 2 -2.7944 1.2195
-14 5 3 2.8454 -5.8019
-14 5 4 -5.4630 -6.0582
-14 5 5 9.5348 -2.0983
-14 5 6 3.0967 -13.5286
-14 5 7 3.7285 -8.4623
-14 5 8 -4.5186 -4.0956
-14 5 9 5.6873 -10.4129
-14 5 10 1.5325 -12.9865
-14 5 11 -8.6894 4.2360
-14 5 12 11.6126 -5.9926
-14 5 13 -0.9912 12.2343
-14 5 14 1.4145 17.1208
-14 5 15 3.7046 5.2092
-14 5 16 3.7948 0.4575
-14 5 17 -1.4976 -1.9601
-14 5 18 10.7480 -3.7625
-14 5 19 6.2413 -7.3623
-14 5 20 3.4909 5.4958
-14 6 1 -2.5314 4.4898
-14 6 2 -6.9765 13.6552
-14 6 3 1.1920 -2.3789
-14 6 4 -12.1950 -5.3554
-14 6 5 2.8020 1.1483
-14 6 6 -6.0235 3.0308
-14 6 7 -0.1425 2.4942
-14 6 8 3.9613 8.3509
-14 6 9 -7.6463 0.2266
-14 6 10 2.1492 3.4882
-14 6 11 -11.8175 -3.0207
-14 6 12 -2.5746 2.6122
-14 6 13 -3.8750 3.1846
-14 6 14 1.0549 -15.5785
-14 6 15 -0.2082 8.4305
-14 6 16 10.3453 -2.2513
-14 6 17 1.8788 5.1057
-14 6 18 -4.4063 -9.4474
-14 6 19 5.0201 -5.8919
-14 7 1 -1.7072 0.0102
-14 7 2 5.5841 -3.3472
-14 7 3 -2.8859 9.2246
-14 7 4 -5.5820 -2.9048
-14 7 5 -7.4554 -5.8618
-14 7 6 0.9630 4.0963
-14 7 7 3.4894 7.2272
-14 7 8 0.4706 7.0394
-14 7 9 2.8395 3.9074
-14 7 10 1.7871 7.3438
-14 7 11 3.0923 -1.1516
-14 7 12 4.2069 2.0602
-14 7 13 -4.4574 0.6106
-14 7 14 -0.4326 -5.2675
-14 7 15 2.2334 -0.6151
-14 7 16 -3.9378 -5.5523
-14 7 17 -3.2556 -8.3480
-14 7 18 -4.6542 2.2889
-14 7 19 0.3636 -12.3318
-14 8 1 5.7815 -0.4656
-14 8 2 -1.0698 -5.3386
-14 8 3 3.7381 6.1989
-14 8 4 2.1545 -4.8822
-14 8 5 -1.1541 1.2664
-14 8 6 -3.8277 -3.5446
-14 8 7 4.0272 -0.6456
-14 8 8 -1.2630 3.0378
-14 8 9 1.1323 0.4504
-14 8 10 12.3995 3.5187
-14 8 11 -3.0034 -1.3715
-14 8 12 2.9170 3.4158
-14 8 13 -4.2031 1.2871
-14 8 14 2.2838 -3.1363
-14 8 15 -7.2343 -2.4719
-14 8 16 6.3636 0.9963
-14 8 17 -2.5245 -11.0278
-14 8 18 4.8349 8.9933
-14 8 19 8.8668 2.4178
-14 9 1 -0.1955 6.7778
-14 9 2 -13.3263 1.4394
-14 9 3 -3.4885 3.3811
-14 9 4 9.0860 -8.0076
-14 9 5 0.6758 -4.2863
-14 9 6 -4.8117 5.9568
-14 9 7 7.0375 1.8066
-14 9 8 6.6684 -9.0214
-14 9 9 -0.7286 0.7243
-14 9 10 2.9052 -1.4606
-14 9 11 4.2543 -2.7395
-14 9 12 0.0729 -6.1701
-14 9 13 3.6416 -10.2756
-14 9 14 5.1846 -5.0930
-14 9 15 11.8984 -3.6436
-14 9 16 9.5844 -2.4034
-14 9 17 2.6940 -4.9717
-14 9 18 4.5047 -2.3761
-14 10 1 0.8644 -1.9643
-14 10 2 11.5351 -0.3708
-14 10 3 3.0031 7.5675
-14 10 4 -10.2994 -5.6712
-14 10 5 2.6642 4.0579
-14 10 6 -1.5036 -4.7359
-14 10 7 -7.6100 -8.4347
-14 10 8 5.6001 4.0822
-14 10 9 2.6550 -2.4723
-14 10 10 0.0295 -5.8187
-14 10 11 -9.9610 -5.1685
-14 10 12 5.7107 0.7997
-14 10 13 1.4197 -1.4992
-14 10 14 -6.6516 6.5335
-14 10 15 -7.1542 1.7114
-14 10 16 2.9052 8.5133
-14 10 17 4.4812 -5.0753
-14 11 1 -3.7975 -8.1293
-14 11 2 6.3738 -9.6436
-14 11 3 -2.8836 8.6070
-14 11 4 6.6797 -0.2237
-14 11 5 -6.6011 -1.7813
-14 11 6 1.9086 1.0012
-14 11 7 6.0475 7.5789
-14 11 8 -6.3537 -0.8685
-14 11 9 -3.4429 -8.7624
-14 11 10 -0.1892 0.9731
-14 11 11 1.2266 -5.5570
-14 11 12 0.7458 -1.8753
-14 11 13 -5.3100 4.3853
-14 11 14 5.6755 -3.4876
-14 11 15 -6.9710 -13.4102
-14 11 16 3.7049 -3.6127
-14 11 17 0.9321 -0.0424
-14 12 1 2.9275 7.9744
-14 12 2 -13.6785 6.1773
-14 12 3 -0.4999 5.5140
-14 12 4 -2.7252 6.5865
-14 12 5 -6.5013 3.8194
-14 12 6 -2.3841 -6.5664
-14 12 7 -0.9138 5.0302
-14 12 8 7.3937 4.8733
-14 12 9 0.0421 -1.2167
-14 12 10 -11.3496 3.9319
-14 12 11 -2.5395 -4.7537
-14 12 12 -13.2407 -7.9847
-14 12 13 -0.2183 -9.9987
-14 12 14 -1.9803 9.2966
-14 12 15 -4.1940 -2.1207
-14 12 16 -9.2990 2.9115
-14 13 1 -12.2813 -7.8810
-14 13 2 -1.4929 -2.4907
-14 13 3 9.1199 5.5914
-14 13 4 9.1142 -6.1807
-14 13 5 3.5557 7.2552
-14 13 6 6.2667 -1.9036
-14 13 7 -12.0717 -7.5776
-14 13 8 -0.1840 4.8958
-14 13 9 -3.3858 -4.8606
-14 13 10 -3.8378 -4.2114
-14 13 11 -0.9419 -9.5190
-14 13 12 1.6018 -11.9262
-14 13 13 10.3828 -10.9830
-14 13 14 -9.5218 4.0811
-14 13 15 6.6944 6.6836
-14 14 1 1.2412 10.3131
-14 14 2 3.6416 11.0696
-14 14 3 0.0096 6.5600
-14 14 4 -12.9309 12.3976
-14 14 5 4.6921 4.9018
-14 14 6 -11.2076 1.0000
-14 14 7 9.5846 -3.3932
-14 14 8 0.1242 4.0210
-14 14 9 -2.6782 3.2964
-14 14 10 -0.4026 3.5207
-14 14 11 7.0497 0.3118
-14 14 12 3.4354 -2.1178
-14 14 13 6.2607 5.0412
-14 14 14 -3.0681 -7.9859
-14 15 1 11.6789 -5.2554
-14 15 2 1.4158 -0.6400
-14 15 3 0.3751 -21.3308
-14 15 4 0.7927 6.6873
-14 15 5 4.4765 -5.5809
-14 15 6 8.9602 9.0414
-14 15 7 -4.5823 2.7428
-14 15 8 7.7161 7.7866
-14 15 9 -10.5384 -8.8331
-14 15 10 1.3329 -2.7556
-14 15 11 0.2657 -2.5587
-14 15 12 3.4065 10.2546
-14 15 13 11.4014 -4.8679
-14 16 1 -3.4189 -3.0780
-14 16 2 -6.4181 -4.6253
-14 16 3 -10.0402 5.7666
-14 16 4 -1.0234 -13.1980
-14 16 5 -6.3351 5.3634
-14 16 6 1.8011 -14.3894
-14 16 7 0.7277 5.5710
-14 16 8 6.4374 -12.2758
-14 16 9 6.9090 2.8353
-14 16 10 -1.7212 -1.3778
-14 16 11 2.7010 -6.3522
-14 17 1 -4.3758 -12.3265
-14 17 2 9.0458 8.1063
-14 17 3 -5.4693 -7.9891
-14 17 4 2.7829 7.1800
-14 17 5 7.6774 -13.7530
-14 17 6 1.1072 -3.3620
-14 17 7 -0.3828 1.6829
-14 17 8 0.9154 -2.1758
-14 17 9 1.9468 7.9368
-14 17 10 7.0887 5.2323
-14 18 1 -1.4972 2.5619
-14 18 2 -2.6392 -11.9390
-14 18 3 -1.4097 -0.2019
-14 18 4 -4.2057 -3.7622
-14 18 5 -6.3662 -2.3719
-14 18 6 -0.3980 -4.8835
-14 18 7 -2.0554 3.4269
-14 19 1 -5.7190 1.5670
-14 19 2 -1.8107 3.7280
-14 19 3 -0.8304 -11.9182
-14 19 4 -1.6807 -2.6453
-13 0 2 -4.7794 -2.6443
-13 0 4 -6.7125 3.6789
-13 0 6 6.4966 -3.7637
-13 0 8 5.7378 -5.7909
-13 0 10 7.5204 11.7771
-13 0 12 -4.3979 0.0606
-13 0 14 -4.6680 11.5670
-13 0 16 -15.5113 3.6456
-13 0 18 -3.8056 -0.8317
-13 0 20 -6.9609 -6.4193
-13 1 1 0.4592 0.3663
-13 1 2 -11.4459 -8.9656
-13 1 3 -7.3581 -0.5939
-13 1 4 9.3689 3.8968
-13 1 5 10.0300 0.8301
-13 1 6 -12.0074 9.7431
-13 1 7 -7.6213 -0.3908
-13 1 8 12.1164 2.7166
-13 1 9 7.1062 -13.0373
-13 1 10 -4.1893 14.5006
-13 1 11 -0.7095 7.0912
-13 1 12 -3.2403 5.3133
-13 1 13 4.4758 4.9984
-13 1 14 -12.0183 4.8293
-13 1 15 -2.9085 3.0215
-13 1 16 -11.0762 0.7972
-13 1 17 4.8190 3.2609
-13 1 18 -3.8302 -8.8562
-13 1 19 -14.3604 -8.3610
-13 1 20 14.1478 -4.5533
-13 1 21 5.5325 -4.6187
-13 2 1 -7.7108 -4.0252
-13 2 2 0.1415 -1.4787
-13 2 3 14.9136 -7.0636
-13 2 4 5.3902 -3.1634
-13 2 5 28.2723 15.3313
-13 2 6 -2.7627 2.4201
-13 2 7 -13.2949 -10.1943
-13 2 8 -5.2899 -3.0386
-13 2 9 -7.2102 -12.1930
-13 2 10 -2.1396 1.5456
-13 2 11 13.1589 -12.1285
-13 2 12 -2.5523 -3.4880
-13 2 13 10.6355 16.4928
-13 2 14 4.7760 -3.7316
-13 2 15 -2.9057 3.9219
-13 2 16 -0.2300 -2.8847
-13 2 17 11.3674 5.2075
-13 2 18 -1.1664 0.3373
-13 2 19 -14.5902 6.1666
-13 2 20 0.5342 -2.2625
-13 2 21 -6.0161 5.0753
-13 3 1 -9.7753 3.4987
-13 3 2 0.7789 0.5466
-13 3 3 11.2160 -12.1935
-13 3 4 -10.3414 -5.3575
-13 3 5 0.6738 5.9487
-13 3 6 2.4475 -10.3276
-13 3 7 9.6923 -3.0830
-13 3 8 3.7188 -5.5761
-13 3 9 9.6482 -3.4379
-13 3 10 1.1495 14.8542
-13 3 11 10.3685 -0.6115
-13 3 12 -4.6609 6.3261
-13 3 13 1.9923 -4.0216
-13 3 14 8.4498 -9.8524
-13 3 15 -1.0415 -0.7788
-13 3 16 12.2868 -5.8722
-13 3 17 -2.7002 -5.3848
-13 3 18 9.7031 -0.0918
-13 3 19 0.9603 -1.1078
-13 3 20 -1.5706 0.0329
-13 3 21 1.3834 -2.0443
-13 4 1 -0.3111 -20.8688
-13 4 2 -1.3528 -4.9053
-13 4 3 10.7183 -9.3853
-13 4 4 4.2949 -2.7813
-13 4 5 -1.1183 0.4910
-13 4 6 0.6853 -1.7521
-13 4 7 18.1132 5.3158
-13 4 8 1.7333 -3.3618
-13 4 9 4.8006 -10.6477
-13 4 10 1.8519 4.6285
-13 4 11 8.3191 -1.3085
-13 4 12 3.1564 4.6830
-13 4 13 6.7936 0.3345
-13 4 14 3.6602 4.0659
-13 4 15 1.4072 -7.5781
-13 4 16 3.4529 2.4012
-13 4 17 0.1447 0.5411
-13 4 18 7.7811 -4.4059
-13 4 19 6.7191 4.8460
-13 4 20 -0.3548 5.5450
-13 4 21 -9.4574 3.4786
-13 5 1 10.1944 -6.0289
-13 5 2 5.8883 1.4655
-13 5 3 1.9301 -3.9853
-13 5 4 -0.0262 0.7349
-13 5 5 7.1504 -4.5029
-13 5 6 19.3902 -14.8430
-13 5 7 0.6183 -6.1015
-13 5 8 17.0175 2.8554
-13 5 9 13.4718 -5.8477
-13 5 10 13.3835 -2.7082
-13 5 11 -2.3524 0.9973
-13 5 12 8.4852 3.2799
-13 5 13 8.3736 1.6973
-13 5 14 10.5456 2.7631
-13 5 15 -2.8835 3.0064
-13 5 16 17.2659 -6.7572
-13 5 17 -1.6202 1.3754
-13 5 18 -2.5869 7.4200
-13 5 19 -0.7830 -0.6531
-13 5 20 -3.6787 -3.8958
-13 6 1 0.9914 7.5172
-13 6 2 2.0087 0.9513
-13 6 3 -3.9911 -1.6543
-13 6 4 -1.3838 -3.7504
-13 6 5 -12.2918 10.7157
-13 6 6 -3.8207 2.8835
-13 6 7 -3.1103 -9.5596
-13 6 8 2.1118 -0.2554
-13 6 9 2.8654 6.0528
-13 6 10 4.3825 1.8232
-13 6 11 -1.9935 -12.3043
-13 6 12 3.1483 4.3581
-13 6 13 -16.7549 -0.1329
-13 6 14 3.4056 5.9514
-13 6 15 1.2447 3.6290
-13 6 16 -2.1025 0.5927
-13 6 17 -7.6130 -17.5820
-13 6 18 -1.7043 0.3893
-13 6 19 -5.4322 -6.2174
-13 6 20 -3.1606 -0.1730
-13 7 1 11.3564 -10.7981
-13 7 2 2.0576 -0.1693
-13 7 3 3.7325 6.2279
-13 7 4 5.9104 5.6126
-13 7 5 -10.4073 4.1598
-13 7 6 -6.2916 7.2970
-13 7 7 -14.4045 2.8808
-13 7 8 2.9298 2.5116
-13 7 9 -3.2067 4.7117
-13 7 10 0.6802 6.0295
-13 7 11 -7.0022 4.7415
-13 7 12 -3.0347 6.5527
-13 7 13 -16.7997 -5.6476
-13 7 14 -14.2379 -2.3676
-13 7 15 3.9046 3.6138
-13 7 16 0.0777 1.9740
-13 7 17 0.9468 5.5930
-13 7 18 8.3822 4.3818
-13 7 19 -1.3253 -6.8833
-13 7 20 -6.3572 3.0226
-13 8 1 11.1642 -6.3175
-13 8 2 -2.0783 -1.7600
-13 8 3 0.9504 5.6174
-13 8 4 1.9252 -4.6975
-13 8 5 -16.6185 -6.2430
-13 8 6 -3.6676 3.0429
-13 8 7 -6.5361 -4.6404
-13 8 8 5.0267 -1.3909
-13 8 9 -7.5714 6.9391
-13 8 10 5.1361 1.4970
-13 8 11 -5.3331 -4.5930
-13 8 12 -2.7323 -1.9160
-13 8 13 16.2268 4.7035
-13 8 14 -3.9333 3.5834
-13 8 15 -2.9977 3.5351
-13 8 16 -3.0648 5.8107
-13 8 17 1.1369 -7.4878
-13 8 18 0.0664 5.7034
-13 8 19 1.7602 3.5112
-13 9 1 -4.6534 -2.3512
-13 9 2 8.9400 -1.6858
-13 9 3 2.1122 7.1316
-13 9 4 6.6331 11.4683
-13 9 5 -8.3385 11.4491
-13 9 6 1.4973 10.8633
-13 9 7 -8.6999 -1.2645
-13 9 8 -4.9255 9.6054
-13 9 9 5.1233 -0.5391
-13 9 10 -0.2568 -3.7742
-13 9 11 -12.3473 10.9929
-13 9 12 -9.4128 2.9341
-13 9 13 -3.3349 4.4437
-13 9 14 -4.6995 10.1443
-13 9 15 5.2972 -4.7822
-13 9 16 -3.1289 -3.1152
-13 9 17 1.0420 4.1239
-13 9 18 -5.1054 4.2652
-13 9 19 -2.5118 2.5698
-13 10 1 -0.4252 -8.7720
-13 10 2 3.5947 -0.6950
-13 10 3 16.1059 5.0181
-13 10 4 -6.2260 3.6501
-13 10 5 7.5967 5.0593
-13 10 6 -0.2134 1.2538
-13 10 7 -1.3517 -9.8494
-13 10 8 3.4066 6.4571
-13 10 9 18.7931 -1.6758
-13 10 10 -0.4796 1.9630
-13 10 11 -6.6066 4.9378
-13 10 12 0.7959 2.8677
-13 10 13 -1.1148 10.3303
-13 10 14 -4.5657 5.5399
-13 10 15 0.3323 6.6051
-13 10 16 0.2139 -5.3876
-13 10 17 7.1492 -5.4666
-13 10 18 1.9446 5.8419
-13 11 1 -8.6217 3.7693
-13 11 2 -15.3973 6.3207
-13 11 3 -2.3837 -0.8691
-13 11 4 -7.6864 1.8709
-13 11 5 -3.0853 -2.7904
-13 11 6 -4.3198 -2.1485
-13 11 7 5.7391 -2.1849
-13 11 8 -11.7816 -6.8136
-13 11 9 -5.1883 -9.3206
-13 11 10 1.5584 4.1710
-13 11 11 -9.2272 -5.8450
-13 11 12 -7.0454 4.9283
-13 11 13 -10.9807 -3.1057
-13 11 14 -3.7841 -1.0064
-13 11 15 2.0547 -1.8628
-13 11 16 -5.3168 9.2469
-13 11 17 7.6083 2.5841
-13 11 18 7.2962 6.6892
-13 12 1 -4.8933 -3.0937
-13 12 2 -3.0232 -1.1731
-13 12 3 8.9628 -4.9878
-13 12 4 -4.6151 12.6561
-13 12 5 2.6931 -1.3202
-13 12 6 0.8605 -2.2934
-13 12 7 -1.5213 -8.0464
-13 12 8 -2.5919 4.6626
-13 12 9 1.4452 1.6998
-13 12 10 -3.1343 -7.1084
-13 12 11 3.6836 13.0521
-13 12 12 -0.1172 -6.1746
-13 12 13 -3.4978 -6.7657
-13 12 14 1.2384 -5.9118
-13 12 15 2.3814 9.7810
-13 12 16 5.0195 -2.3454
-13 12 17 -6.3277 3.8066
-13 13 1 1.9471 -4.4404
-13 13 2 -13.6301 5.5597
-13 13 3 4.6371 7.3056
-13 13 4 -22.4229 -12.7103
-13 13 5 8.2422 -7.9171
-13 13 6 -14.4494 5.1421
-13 13 7 22.5171 -4.5693
-13 13 8 1.4850 0.2815
-13 13 9 4.1455 9.1502
-13 13 10 5.0460 18.3143
-13 13 11 2.4327 1.2051
-13 13 12 -12.5615 -5.3229
-13 13 13 -3.6989 4.2036
-13 13 14 -7.9558 -1.2952
-13 13 15 4.0372 4.9673
-13 13 16 -11.9575 -6.8441
-13 14 1 1.4835 -10.6254
-13 14 2 1.8652 -0.1715
-13 14 3 -3.8740 -6.5678
-13 14 4 2.2826 8.4494
-13 14 5 -8.8711 0.6991
-13 14 6 2.6830 6.2892
-13 14 7 -2.9402 15.9949
-13 14 8 -1.7092 2.4967
-13 14 9 -15.1698 21.7988
-13 14 10 3.7395 1.4608
-13 14 11 -8.8762 -2.6468
-13 14 12 7.2933 6.6842
-13 14 13 8.6812 -0.7264
-13 14 14 -1.9899 0.7959
-13 14 15 4.1121 -7.5359
-13 15 1 8.5002 -12.1182
-13 15 2 -11.9008 3.9504
-13 15 3 3.6801 -8.2836
-13 15 4 3.8913 9.9067
-13 15 5 0.3991 3.6382
-13 15 6 6.2264 7.6833
-13 15 7 -3.1995 -5.2415
-13 15 8 4.9584 -5.6061
-13 15 9 5.9648 -3.7083
-13 15 10 1.2112 -7.6983
-13 15 11 8.9567 10.1816
-13 15 12 -10.1124 4.3034
-13 15 13 -4.2820 -0.6982
-13 15 14 -7.2795 0.2952
-13 16 1 2.2508 -0.4291
-13 16 2 -0.9068 1.5012
-13 16 3 11.1312 13.8035
-13 16 4 -6.0127 6.7987
-13 16 5 -7.2391 10.1254
-13 16 6 -10.0731 -0.5200
-13 16 7 -5.3416 0.6384
-13 16 8 0.9335 4.1098
-13 16 9 -16.5033 -2.3074
-13 16 10 0.7239 -7.9619
-13 16 11 -5.4346 -8.2492
-13 16 12 15.1834 1.3420
-13 16 13 7.8563 -14.9773
-13 17 1 -0.0126 -11.8543
-13 17 2 4.9164 6.0577
-13 17 3 6.1175 -3.2230
-13 17 4 -2.3343 -1.1778
-13 17 5 -4.7265 7.0230
-13 17 6 -0.4956 0.4787
-13 17 7 -10.8514 13.1649
-13 17 8 10.9427 -6.5089
-13 17 9 -2.6253 1.6136
-13 17 10 0.1799 9.5743
-13 17 11 -5.5310 7.0483
-13 18 1 9.6212 -2.0229
-13 18 2 -1.6140 -5.3263
-13 18 3 -4.7179 -1.2546
-13 18 4 -9.2953 -3.0001
-13 18 5 -0.8713 -6.7276
-13 18 6 -0.9990 8.8452
-13 18 7 -2.1686 -4.7951
-13 18 8 -10.7101 -0.6964
-13 18 9 4.2010 -8.3310
-13 19 1 -2.4598 5.1659
-13 19 2 10.0674 7.9083
-13 19 3 -6.0953 11.1341
-13 19 4 3.1949 7.2775
-13 19 5 -2.6196 7.1748
-13 19 6 3.8489 -8.4828
-13 19 7 -5.6488 -1.8069
-13 20 1 8.1724 -10.2829
-12 0 2 8.9421 14.2209
-12 0 4 6.9533 -2.6812
-12 0 6 -36.4658 10.8787
-12 0 8 -12.1561 -5.7255
-12 0 10 -27.5821 1.5327
-12 0 12 -12.1965 4.0945
-12 0 14 -12.0899 -10.2511
-12 0 16 15.1891 -5.6166
-12 0 18 4.7728 -2.4580
-12 0 20 -1.1725 -6.9830
-12 0 22 -0.5518 9.2027
-12 1 1 -16.7955 -13.1226
-12 1 2 11.5775 -6.7728
-12 1 3 8.6817 2.1839
-12 1 4 6.9045 11.1136
-12 1 5 -5.2150 -5.0347
-12 1 6 -16.0796 -2.8375
-12 1 7 -0.8640 16.4232
-12 1 8 -3.7381 -9.8778
-12 1 9 -10.8709 9.1077
-12 1 10 -5.8013 -4.2246
-12 1 11 -10.9335 6.1447
-12 1 12 -6.5817 0.0987
-12 1 13 -3.4567 -20.4720
-12 1 14 -8.0416 -5.1957
-12 1 15 -6.8863 -4.5989
-12 1 16 3.1639 -9.4551
-12 1 17 -12.1981 -12.4494
-12 1 18 -1.2911 0.0262
-12 1 19 9.6620 5.0353
-12 1 20 5.8909 -7.9545
-12 1 21 7.1350 0.0989
-12 1 22 10.6092 4.9610
-12 2 1 4.5688 -2.4916
-12 2 2 10.6430 12.1790
-12 2 3 7.4290 -5.1135
-12 2 4 -9.9007 25.0436
-12 2 5 1.2018 5.5745
-12 2 6 6.2414 0.4461
-12 2 7 1.8459 -4.7948
-12 2 8 -19.2648 6.1113
-12 2 9 2.2925 0.7790
-12 2 10 -0.5291 -2.8732
-12 2 11 1.6287 0.9645
-12 2 12 -10.4768 -4.9162
-12 2 13 4.6756 3.1584
-12 2 14 -0.8540 -19.2115
-12 2 15 0.7291 0.7006
-12 2 16 -2.5247 -14.9962
-12 2 17 -4.9478 -2.2883
-12 2 18 -8.7608 -11.4112
-12 2 19 3.8050 0.2417
-12 2 20 1.3988 8.0287
-12 2 21 -4.6617 7.0738
-12 2 22 1.1884 -7.7568
-12 3 1 4.3545 0.7434
-12 3 2 -11.4710 -1.8662
-12 3 3 3.5992 -14.6807
-12 3 4 -9.9387 11.6462
-12 3 5 -7.8106 -13.2147
-12 3 6 -7.0592 3.3568
-12 3 7 11.2779 0.7689
-12 3 8 -4.8648 1.6814
-12 3 9 -10.5152 -5.3058
-12 3 10 -5.0524 -10.3279
-12 3 11 -17.0683 10.4925
-12 3 12 -6.8146 -1.2610
-12 3 13 -19.5804 -1.8322
-12 3 14 -9.4176 8.0083
-12 3 15 -22.7987 -14.0252
-12 3 16 1.5176 -4.6033
-12 3 17 -0.9090 -17.2355
-12 3 18 1.5664 -2.8631
-12 3 19 -10.4773 4.6487
-12 3 20 3.2921 -0.7346
-12 3 21 -5.1988 3.0125
-12 3 22 1.2335 3.5921
-12 4 1 1.6634 -3.4692
-12 4 2 -4.7536 -6.5212
-12 4 3 -0.9094 -1.3046
-12 4 4 -4.3251 -3.5700
-12 4 5 0.1229 -0.0141
-12 4 6 -0.5898 4.3709
-12 4 7 6.5348 -1.2010
-12 4 8 12.4992 16.2290
-12 4 9 0.0698 -2.1987
-12 4 10 -20.9894 -1.0140
-12 4 11 1.2665 -2.5581
-12 4 12 -5.7338 -7.0255
-12 4 13 2.1228 -2.7876
-12 4 14 9.4245 -11.6490
-12 4 15 8.3612 0.4600
-12 4 16 -6.8516 12.6903
-12 4 17 7.3590 7.4979
-12 4 18 -5.4316 -12.6345
-12 4 19 0.6936 1.0200
-12 4 20 4.9131 -4.4283
-12 4 21 4.6303 1.9198
-12 5 1 -8.6320 -0.5631
-12 5 2 -6.8168 7.0232
-12 5 3 -2.8340 2.0531
-12 5 4 -7.8438 -0.1541
-12 5 5 2.9473 9.5378
-12 5 6 14.1321 0.3343
-12 5 7 4.4411 -16.7051
-12 5 8 11.0856 6.5787
-12 5 9 12.8642 -2.9367
-12 5 10 8.1586 -3.7628
-12 5 11 1.7957 -10.1228
-12 5 12 19.2261 7.3973
-12 5 13 -7.4509 0.4559
-12 5 14 2.3445 1.6461
-12 5 15 -5.9651 -3.7326
-12 5 16 2.9510 3.8326
-12 5 17 -7.9180 12.8881
-12 5 18 1.5441 9.6563
-12 5 19 -9.3375 9.3156
-12 5 20 0.1264 2.6638
-12 5 21 3.0095 -2.4868
-12 6 1 -7.0000 -1.2327
-12 6 2 -3.7417 -4.0355
-12 6 3 1.9620 -1.8011
-12 6 4 5.0668 -8.0163
-12 6 5 -0.4782 7.2434
-12 6 6 5.0986 -0.7733
-12 6 7 -1.3313 -5.2838
-12 6 8 4.2359 1.0632
-12 6 9 -7.1946 2.7457
-12 6 10 -8.0715 -2.8605
-12 6 11 -6.0864 -6.3106
-12 6 12 -4.1553 -3.9812
-12 6 13 7.4155 8.4970
-12 6 14 10.4921 5.6986
-12 6 15 4.4342 10.0570
-12 6 16 3.0083 -6.9486
-12 6 17 -2.6467 9.7232
-12 6 18 8.9131 0.9481
-12 6 19 5.6777 -2.3418
-12 6 20 0.5311 -8.0688
-12 6 21 1.2531 3.8078
-12 7 1 -0.0667 9.1170
-12 7 2 5.3388 5.6796
-12 7 3 -4.8756 -0.0481
-12 7 4 0.5570 2.9218
-12 7 5 -10.9503 -3.8881
-12 7 6 4.8497 2.3355
-12 7 7 -6.8894 -1.6374
-12 7 8 -7.7081 -4.2096
-12 7 9 -4.8417 -8.7237
-12 7 10 -0.8752 -0.8841
-12 7 11 4.0814 0.0846
-12 7 12 -5.3392 2.6291
-12 7 13 -0.1694 -3.1501
-12 7 14 0.6976 -5.2048
-12 7 15 4.9872 2.8264
-12 7 16 1.5165 12.2831
-12 7 17 11.7956 -0.6410
-12 7 18 -13.7939 -1.2608
-12 7 19 2.8541 -0.5852
-12 7 20 2.6318 -1.5243
-12 7 21 -3.0006 1.8663
-12 8 1 -9.5502 4.3446
-12 8 2 3.6268 0.8936
-12 8 3 -3.3212 -2.0748
-12 8 4 0.2058 -9.9366
-12 8 5 -1.1295 -5.5622
-12 8 6 2.6177 0.7065
-12 8 7 0.6978 2.1847
-12 8 8 -2.4654 -11.9166
-12 8 9 -2.3287 3.7949
-12 8 10 2.4155 7.6960
-12 8 11 -1.2175 0.2402
-12 8 12 -0.6964 -10.5006
-12 8 13 5.7464 4.9878
-12 8 14 5.5236 -1.3161
-12 8 15 2.8629 5.5353
-12 8 16 0.8428 -0.2860
-12 8 17 5.0161 -5.5168
-12 8 18 -7.9847 -9.6568
-12 8 19 4.5794 -3.6079
-12 8 20 7.5252 -5.1225
-12 9 1 -4.0586 -5.2423
-12 9 2 -9.5115 -0.6923
-12 9 3 0.1039 8.0283
-12 9 4 7.1710 4.9419
-12 9 5 0.5183 2.5983
-12 9 6 -6.4977 -7.0299
-12 9 7 -11.7921 -0.3148
-12 9 8 0.5846 7.5031
-12 9 9 0.4763 -8.2826
-12 9 10 -6.3816 2.1238
-12 9 11 5.7516 -1.3395
-12 9 12 -2.7494 5.0572
-12 9 13 5.6230 3.2915
-12 9 14 2.9775 0.8474
-12 9 15 1.7607 1.5751
-12 9 16 -7.3136 8.9307
-12 9 17 -0.6933 6.4371
-12 9 18 -11.7811 -2.5780
-12 9 19 -8.2454 -1.9329
-12 9 20 -4.1002 -7.7510
-12 10 1 -0.8941 1.4619
-12 10 2 1.8640 0.0499
-12 10 3 -2.0016 1.4094
-12 10 4 1.3736 -8.2953
-12 10 5 -2.2973 -5.0916
-12 10 6 -0.8635 -0.7708
-12 10 7 8.5183 -5.7240
-12 10 8 -13.5763 3.9535
-12 10 9 1.3529 5.6537
-12 10 10 1.5276 -6.6620
-12 10 11 3.2242 -1.0609
-12 10 12 -1.6977 -12.6535
-12 10 13 1.0612 5.0713
-12 10 14 7.3020 0.7103
-12 10 15 -2.5742 5.0411
-12 10 16 -7.1118 2.7055
-12 10 17 -7.0212 -1.3787
-12 10 18 8.2939 -7.6739
-12 10 19 4.8837 -4.2563
-12 11 1 2.0565 12.0338
-12 11 2 -0.3320 2.9563
-12 11 3 0.2939 -1.2984
-12 11 4 -11.6043 -7.0594
-12 11 5 9.4378 6.7710
-12 11 6 8.0372 -4.5427
-12 11 7 -4.9055 2.1304
-12 11 8 -4.7724 0.9263
-12 11 9 13.8347 -3.7983
-12 11 10 -1.3529 -3.9027
-12 11 11 -2.4950 -1.9614
-12 11 12 -9.7167 -2.2189
-12 11 13 -18.1277 -9.7547
-12 11 14 -9.1827 0.1473
-12 11 15 8.9043 -0.4679
-12 11 16 -1.6676 -5.5405
-12 11 17 -2.4831 6.2792
-12 11 18 -0.4870 -5.6152
-12 12 1 -3.0979 -4.2945
-12 12 2 2.7831 1.3795
-12 12 3 4.0466 -1.3904
-12 12 4 -8.4097 12.7517
-12 12 5 -3.2886 -4.8702
-12 12 6 17.8005 -8.0006
-12 12 7 -8.3911 1.0181
-12 12 8 25.5485 16.7110
-12 12 9 -5.7286 2.0132
-12 12 10 13.4750 -5.8881
-12 12 11 -5.0538 -3.9505
-12 12 12 14.2662 -9.7102
-12 12 13 12.5650 -5.2761
-12 12 14 -10.4632 0.2733
-12 12 15 6.5197 2.6593
-12 12 16 -7.0428 -1.3610
-12 12 17 -1.9240 -8.3507
-12 12 18 4.3535 -2.9062
-12 13 1 -0.0117 -11.0560
-12 13 2 4.5499 5.2670
-12 13 3 -3.5152 0.7868
-12 13 4 2.6559 5.5397
-12 13 5 1.0718 -2.8807
-12 13 6 -0.6270 8.1713
-12 13 7 3.8433 -14.0238
-12 13 8 5.9502 -2.5321
-12 13 9 -8.0652 4.8380
-12 13 10 7.2505 -3.5367
-12 13 11 -4.1143 -1.0725
-12 13 12 1.5051 -3.1669
-12 13 13 14.2885 3.2147
-12 13 14 -0.5896 -8.2799
-12 13 15 -1.0234 -1.2159
-12 13 16 -6.7123 -2.2255
-12 13 17 -2.0222 4.4679
-12 14 1 0.7630 -0.4880
-12 14 2 -4.4597 0.2188
-12 14 3 -8.0636 1.3214
-12 14 4 -11.0982 -15.8395
-12 14 5 -3.6405 2.4797
-12 14 6 1.0181 -20.9465
-12 14 7 10.2563 5.1332
-12 14 8 -3.3325 0.9248
-12 14 9 -4.8741 -3.6266
-12 14 10 -9.0882 12.3316
-12 14 11 -3.4688 -0.5148
-12 14 12 -10.3439 -4.9571
-12 14 13 -8.1071 -1.8083
-12 14 14 1.9820 -5.1354
-12 14 15 -3.5428 3.1469
-12 14 16 3.9253 -5.8404
-12 15 1 1.8532 0.7764
-12 15 2 2.8379 1.0956
-12 15 3 19.5078 -12.0220
-12 15 4 -4.1715 6.7940
-12 15 5 -7.0332 -4.7071
-12 15 6 1.1294 5.9570
-12 15 7 -2.8805 -13.2621
-12 15 8 6.3002 -0.5830
-12 15 9 3.2134 1.6580
-12 15 10 15.7271 8.3935
-12 15 11 1.9728 -3.5809
-12 15 12 -1.7900 -5.8422
-12 15 13 -1.9068 -7.1089
-12 15 14 -2.1819 -2.3462
-12 15 15 4.7485 -6.7913
-12 16 1 6.0936 1.7916
-12 16 2 -1.6364 -4.8154
-12 16 3 -8.5850 -0.8267
-12 16 4 5.3052 -6.8225
-12 16 5 1.8492 -9.8677
-12 16 6 4.4856 5.6053
-12 16 7 2.7629 -1.9891
-12 16 8 2.9734 1.9529
-12 16 9 -3.7824 9.6899
-12 16 10 -6.0538 1.2035
-12 16 11 0.4927 -3.8820
-12 16 12 -6.3895 7.8544
-12 16 13 9.1069 -1.3324
-12 16 14 2.2993 -6.1353
-12 17 1 -9.7079 -23.9510
-12 17 2 14.6759 7.7666
-12 17 3 -4.3223 -20.3481
-12 17 4 -0.2599 -6.9354
-12 17 5 8.0351 -2.2973
-12 17 6 14.2829 -7.5587
-12 17 7 4.7930 8.2047
-12 17 8 13.2179 -1.5788
-12 17 9 -6.1904 -2.9276
-12 17 10 -5.0595 0.9070
-12 17 11 -0.3529 -9.1425
-12 17 12 11.5637 -2.9679
-12 18 1 2.8307 -0.7017
-12 18 2 -6.4366 12.8501
-12 18 3 -4.8432 3.1504
-12 18 4 -17.6165 -6.5359
-12 18 5 4.6960 -5.9669
-12 18 6 3.1352 1.2423
-12 18 7 -0.8771 2.9927
-12 18 8 -2.9470 7.2399
-12 18 9 -5.4513 -4.7341
-12 18 10 -2.4227 0.0572
-12 18 11 -8.2950 -4.3217
-12 19 1 -13.1268 -1.1715
-12 19 2 1.2384 1.6987
-12 19 3 5.2658 -2.9887
-12 19 4 3.0156 0.1290
-12 19 5 -10.2031 -3.3679
-12 19 6 -4.2610 -10.3711
-12 19 7 -3.4850 -1.5680
-12 19 8 0.1345 -3.6183
-12 20 1 -0.9891 2.2930
-12 20 2 -16.0715 9.5735
-12 20 3 -4.0522 -6.4401
-12 20 4 -11.5398 1.2752
-12 20 5 -7.8509 -3.1217
-11 0 2 -4.1052 -9.6612
-11 0 4 -7.2724 -11.3118
-11 0 6 -2.8880 0.0359
-11 0 8 -4.2155 -4.7730
-11 0 10 1.3179 4.8369
-11 0 12 7.0704 0.9211
-11 0 14 1.7856 -2.1525
-11 0 16 -5.1411 -5.7628
-11 0 18 1.0148 2.5035
-11 0 20 -5.6579 -4.4240
-11 0 22 -3.0622 -5.9246
-11 1 1 10.9522 16.7725
-11 1 2 12.0825 -30.0150
-11 1 3 8.4182 -1.0311
-11 1 4 6.0769 9.8441
-11 1 5 10.3495 -9.7513
-11 1 6 -5.7998 -2.2752
-11 1 7 11.1871 -13.3209
-11 1 8 -15.9089 -2.8278
-11 1 9 18.4143 -8.2676
-11 1 10 17.5821 -6.4597
-11 1 11 -0.7292 4.3832
-11 1 12 9.9447 4.3825
-11 1 13 3.7140 10.8076
-11 1 14 -8.0954 5.9738
-11 1 15 1.9049 -1.2545
-11 1 16 0.8191 -12.6380
-11 1 17 0.5000 -7.8084
-11 1 18 18.9154 11.5662
-11 1 19 8.1013 -7.3635
-11 1 20 -5.6107 5.1979
-11 1 21 4.6147 6.7429
-11 1 22 9.9977 -1.0415
-11 2 1 -8.9281 -6.9071
-11 2 2 -0.1706 2.7906
-11 2 3 15.0357 15.4342
-11 2 4 5.8602 2.0332
-11 2 5 1.6670 17.2436
-11 2 6 -6.9647 -0.6093
-11 2 7 5.4038 4.4164
-11 2 8 -4.6297 -4.5629
-11 2 9 -14.6206 -12.8358
-11 2 10 0.1874 -2.3298
-11 2 11 -6.6999 2.2645
-11 2 12 -4.8597 4.7461
-11 2 13 -14.2486 3.4411
-11 2 14 -9.7951 -2.6967
-11 2 15 -10.5800 9.6314
-11 2 16 4.5878 -0.0585
-11 2 17 1.5405 0.9873
-11 2 18 -7.0431 -2.0603
-11 2 19 11.4439 -11.3247
-11 2 20 -2.4699 -2.7031
-11 2 21 -1.8008 -6.0413
-11 2 22 -0.8985 -3.0019
-11 3 1 3.1365 -0.5667
-11 3 2 -9.4665 -9.6903
-11 3 3 1.2198 7.7662
-11 3 4 12.5369 -13.4178
-11 3 5 -3.4765 -6.1481
-11 3 6 -10.1942 4.8810
-11 3 7 -5.5236 3.3832
-11 3 8 -14.1070 -15.0660
-11 3 9 1.5482 -10.4617
-11 3 10 -12.7982 -19.0664
-11 3 11 17.6215 8.2666
-11 3 12 -2.4718 5.2428
-11 3 13 -0.8105 2.5317
-11 3 14 0.2977 0.9135
-11 3 15 -9.4841 -3.4785
-11 3 16 8.4529 -7.3201
-11 3 17 8.9819 -4.3577
-11 3 18 1.6884 11.9083
-11 3 19 10.9126 -4.2495
-11 3 20 -0.8700 -11.7422
-11 3 21 5.8706 4.7386
-11 3 22 -2.7593 -1.9447
-11 4 1 -1.7252 -2.9470
-11 4 2 5.3245 1.1775
-11 4 3 -8.4706 -10.7975
-11 4 4 -0.9054 5.2423
-11 4 5 -2.6932 4.8303
-11 4 6 3.6445 11.4602
-11 4 7 -17.3336 -2.3069
-11 4 8 -0.8221 12.4247
-11 4 9 -3.4373 -0.6118
-11 4 10 -4.2963 7.6921
-11 4 11 6.1994 0.1257
-11 4 12 -2.6158 10.6054
-11 4 13 12.8370 -2.9146
-11 4 14 -4.0481 -1.3542
-11 4 15 5.7479 0.1193
-11 4 16 -1.4042 -1.5763
-11 4 17 -7.1900 -10.6253
-11 4 18 -1.9185 0.3614
-11 4 19 -6.2102 -8.0605
-11 4 20 -7.1585 -0.8346
-11 4 21 6.4844 4.3531
-11 4 22 1.7073 -0.3109
-11 5 1 -0.7592 -1.8913
-11 5 2 -11.5270 2.2441
-11 5 3 -4.9432 6.8262
-11 5 4 -5.2578 -6.9098
-11 5 5 2.3750 -0.9497
-11 5 6 6.5699 11.2052
-11 5 7 3.2417 7.8358
-11 5 8 4.5751 -4.5947
-11 5 9 4.5389 3.5113
-11 5 10 12.5846 0.1253
-11 5 11 3.5831 -2.7309
-11 5 12 -1.5548 16.6274
-11 5 13 -11.5648 8.2352
-11 5 14 -18.9808 -2.3072
-11 5 15 6.8003 6.3090
-11 5 16 9.7618 -5.5537
-11 5 17 -16.0139 -4.2208
-11 5 18 -3.2353 -13.7838
-11 5 19 0.0140 -12.7348
-11 5 20 -3.3507 0.1231
-11 5 21 -2.5601 -2.2301
-11 5 22 -0.0439 -3.5069
-11 6 1 -2.2964 0.8829
-11 6 2 -2.6798 4.9476
-11 6 3 5.1564 -16.5220
-11 6 4 -2.0725 -1.9398
-11 6 5 3.1758 -16.9152
-11 6 6 1.5606 -0.9545
-11 6 7 2.6298 5.4114
-11 6 8 -0.3915 1.0251
-11 6 9 11.5375 3.4044
-11 6 10 1.7806 -3.6189
-11 6 11 -7.3972 11.4707
-11 6 12 3.9768 -1.0114
-11 6 13 -7.7304 -11.4495
-11 6 14 -2.1539 1.8703
-11 6 15 1.7659 -7.1707
-11 6 16 -3.1869 -3.6150
-11 6 17 18.1827 -1.5345
-11 6 18 4.7235 1.4592
-11 6 19 15.3236 6.2086
-11 6 20 -1.4242 1.3940
-11 6 21 -2.3776 10.8679
-11 6 22 1.1837 -1.2593
-11 7 1 1.0335 -5.2164
-11 7 2 -18.7948 8.2815
-11 7 3 2.9917 -13.5484
-11 7 4 -4.3906 8.4247
-11 7 5 3.6706 0.6367
-11 7 6 -3.3230 1.2449
-11 7 7 -0.5983 2.8834
-11 7 8 7.7966 -10.2089
-11 7 9 -6.1691 5.5284
-11 7 10 16.9659 0.6476
-11 7 11 4.7045 -2.2960
-11 7 12 -1.1705 12.6951
-11 7 13 18.1862 -13.2179
-11 7 14 0.2706 -8.9662
-11 7 15 3.5865 7.3796
-11 7 16 -3.4122 -0.1833
-11 7 17 -4.0353 8.3517
-11 7 18 -8.8786 14.1905
-11 7 19 7.0757 1.8846
-11 7 20 -2.9077 0.8385
-11 7 21 4.1920 0.0277
-11 8 1 15.1402 -13.2751
-11 8 2 -7.5537 3.0367
-11 8 3 5.2251 -0.4363
-11 8 4 -3.0172 0.9968
-11 8 5 23.1605 -6.0468
-11 8 6 -1.4632 3.7025
-11 8 7 10.7474 15.1883
-11 8 8 3.2188 2.2287
-11 8 9 -1.3324 -2.6800
-11 8 10 4.4667 0.6082
-11 8 11 -3.4159 -2.6061
-11 8 12 -0.1816 3.0222
-11 8 13 -4.9515 3.3675
-11 8 14 3.1449 3.8296
-11 8 15 0.4061 1.4528
-11 8 16 -10.2549 0.0703
-11 8 17 8.4862 -4.2889
-11 8 18 2.2823 -6.5851
-11 8 19 -1.7748 11.9960
-11 8 20 2.8789 7.1745
-11 8 21 -17.1497 3.2919
-11 9 1 0.9293 1.3914
-11 9 2 8.2535 -9.2177
-11 9 3 1.3501 11.3354
-11 9 4 2.4460 5.1656
-11 9 5 6.4014 -0.4218
-11 9 6 -17.4615 1.3698
-11 9 7 2.2708 11.2257
-11 9 8 -2.9937 -16.1213
-11 9 9 -10.2067 1.6803
-11 9 10 4.2052 -3.0890
-11 9 11 -4.9522 -5.4727
-11 9 12 3.2952 -7.7934
-11 9 13 0.9898 18.0967
-11 9 14 7.9269 -7.3764
-11 9 15 1.4660 9.2544
-11 9 16 15.7414 9.8371
-11 9 17 -3.9743 4.9741
-11 9 18 -0.3025 -8.3192
-11 9 19 -6.8069 3.7746
-11 9 20 3.7103 -4.7508
-11 10 1 2.4503 1.6118
-11 10 2 -2.6441 3.7807
-11 10 3 2.6817 5.0330
-11 10 4 -1.9977 2.0928
-11 10 5 -11.7200 2.5131
-11 10 6 5.0553 -1.8156
-11 10 7 5.0010 8.2375
-11 10 8 -2.3193 0.0849
-11 10 9 -13.6493 8.4050
-11 10 10 4.7146 2.5395
-11 10 11 -6.1701 -20.5166
-11 10 12 -2.1566 -2.5441
-11 10 13 -1.5070 -3.9868
-11 10 14 -6.7471 1.6264
-11 10 15 1.6136 11.4066
-11 10 16 2.6725 0.6636
-11 10 17 2.0726 3.5371
-11 10 18 2.3030 5.3594
-11 10 19 2.4152 2.0608
-11 10 20 -0.7985 2.9499
-11 11 1 6.2562 5.6717
-11 11 2 1.4686 -6.0636
-11 11 3 -8.5552 -0.9985
-11 11 4 6.5134 6.7739
-11 11 5 8.2559 -1.8426
-11 11 6 -1.8633 7.8194
-11 11 7 -3.6958 -0.3900
-11 11 8 -0.4373 -5.7702
-11 11 9 3.5776 -7.8783
-11 11 10 1.7781 -1.6505
-11 11 11 0.1710 -16.5361
-11 11 12 0.7273 -5.1973
-11 11 13 9.1699 -1.7409
-11 11 14 0.1404 1.1925
-11 11 15 -1.4109 3.2062
-11 11 16 0.1735 1.8356
-11 11 17 11.6688 0.8923
-11 11 18 -8.7791 1.8468
-11 11 19 -5.8421 1.7691
-11 12 1 -5.6089 8.3048
-11 12 2 -7.1935 -0.9649
-11 12 3 -10.0313 14.6559
-11 12 4 -7.2438 -3.6943
-11 12 5 -18.8936 6.2749
-11 12 6 6.4941 -3.4815
-11 12 7 -13.9453 -8.3757
-11 12 8 6.6993 -2.8534
-11 12 9 5.0640 -2.7317
-11 12 10 7.5798 3.6113
-11 12 11 8.4000 -2.6355
-11 12 12 1.2479 -2.4559
-11 12 13 20.4128 -8.3855
-11 12 14 6.9831 -2.3337
-11 12 15 -1.0382 -0.4410
-11 12 16 8.6052 -4.0872
-11 12 17 -9.5556 -0.1307
-11 12 18 10.2622 5.3743
-11 13 1 -9.0097 -6.1293
-11 13 2 -4.7333 -4.5145
-11 13 3 -1.6947 -4.2498
-11 13 4 8.4377 6.5530
-11 13 5 7.8590 2.1758
-11 13 6 -6.4208 -9.6220
-11 13 7 -2.1470 4.5689
-11 13 8 9.8965 11.3377
-11 13 9 -7.3092 -15.1557
-11 13 10 -9.6850 10.5870
-11 13 11 6.0921 -13.1722
-11 13 12 5.6393 -2.2362
-11 13 13 6.8150 -6.1689
-11 13 14 -8.8490 -2.2461
-11 13 15 4.1716 1.8330
-11 13 16 -0.4098 -5.9805
-11 13 17 11.9687 4.1631
-11 13 18 8.7073 2.0901
-11 14 1 15.9129 3.8297
-11 14 2 -1.3103 -0.4029
-11 14 3 1.6692 -12.5519
-11 14 4 2.7871 2.0715
-11 14 5 -1.3770 3.5732
-11 14 6 -1.2908 -2.5162
-11 14 7 -7.7313 -9.4859
-11 14 8 1.3097 -0.4616
-11 14 9 5.3979 -0.9567
-11 14 10 -8.2921 -8.8119
-11 14 11 13.2501 7.6952
-11 14 12 -3.4539 -7.4943
-11 14 13 5.5338 -5.0314
-11 14 14 0.8864 -5.5507
-11 14 15 7.0708 -3.3058
-11 14 16 6.3530 -1.1111
-11 14 17 3.7978 -6.6780
-11 15 1 -9.5545 -7.4162
-11 15 2 1.5097 3.0888
-11 15 3 5.0861 -12.3480
-11 15 4 -5.7661 11.5737
-11 15 5 -3.0562 -5.5312
-11 15 6 5.6311 7.5222
-11 15 7 0.6972 -11.5641
-11 15 8 -4.1377 2.9662
-11 15 9 0.9923 -1.9691
-11 15 10 4.8786 2.9576
-11 15 11 -0.2883 -5.7988
-11 15 12 -18.0721 5.3580
-11 15 13 7.4628 2.1410
-11 15 14 -8.7874 -7.1882
-11 15 15 1.3264 0.2193
-11 15 16 4.4086 -1.1900
-11 16 1 4.2396 -0.2557
-11 16 2 0.0730 -1.3103
-11 16 3 -1.2490 12.4262
-11 16 4 6.1315 -6.8060
-11 16 5 7.6383 -11.3353
-11 16 6 5.1981 2.7321
-11 16 7 12.8006 3.5195
-11 16 8 -0.2450 2.0852
-11 16 9 -3.0060 -8.9483
-11 16 10 0.2672 -7.0652
-11 16 11 3.5922 -10.7111
-11 16 12 10.6905 -0.2707
-11 16 13 2.3506 -0.0130
-11 16 14 0.7123 -3.2590
-11 16 15 -4.7236 -15.6366
-11 17 1 6.9609 -2.5856
-11 17 2 7.0424 14.9015
-11 17 3 -1.9099 -4.4585
-11 17 4 6.0272 2.1250
-11 17 5 -2.2279 -1.0129
-11 17 6 -2.2648 1.4958
-11 17 7 -4.9435 4.7611
-11 17 8 0.4382 8.2757
-11 17 9 -7.4117 2.5190
-11 17 10 -9.3341 -0.1632
-11 17 11 5.2936 -3.3043
-11 17 12 2.5602 9.4976
-11 17 13 8.6879 7.4889
-11 18 1 3.6857 7.3333
-11 18 2 1.4387 -1.4539
-11 18 3 2.5650 -7.3424
-11 18 4 5.2622 1.3538
-11 18 5 6.6187 -3.2064
-11 18 6 -0.2361 6.0461
-11 18 7 2.9774 -4.5483
-11 18 8 -0.3639 -9.3706
-11 18 9 5.6536 4.7533
-11 18 10 1.5119 -5.4397
-11 18 11 -4.0866 -5.7332
-11 18 12 -4.1855 -7.2012
-11 19 1 1.1355 -4.0228
-11 19 2 -14.9556 11.1325
-11 19 3 2.1484 -7.9249
-11 19 4 -14.7374 -0.0576
-11 19 5 7.7739 4.4231
-11 19 6 2.9313 0.8877
-11 19 7 4.2379 4.7905
-11 19 8 -2.1938 -3.6985
-11 19 9 -5.1929 -2.6667
-11 19 10 -1.0753 -2.4058
-11 20 1 11.7675 -7.8708
-11 20 2 -2.8225 1.8300
-11 20 3 -4.3677 12.1599
-11 20 4 2.9615 4.6845
-11 20 5 -15.0172 -7.2579
-11 20 6 1.6015 -5.3437
-11 20 7 -0.8821 -2.9150
-11 21 1 4.6407 0.2147
-11 21 2 3.9866 5.6150
-11 21 3 7.1577 2.2398
-10 0 2 26.7021 -15.3883
-10 0 4 41.7495 23.1270
-10 0 6 4.0571 -16.4041
-10 0 8 7.4411 4.3484
-10 0 10 13.6496 -1.1456
-10 0 12 3.6272 31.9859
-10 0 14 -14.6961 -6.3666
-10 0 16 -16.3186 -7.1161
-10 0 18 -25.5403 -11.5437
-10 0 20 -22.5669 -9.0866
-10 0 22 -6.2771 -6.5704
-10 1 1 18.2235 12.8266
-10 1 2 -3.5860 -21.4166
-10 1 3 -8.1550 11.8098
-10 1 4 1.7546 -10.1352
-10 1 5 12.5773 -7.0318
-10 1 6 3.4652 -10.7373
-10 1 7 -4.8566 -2.3753
-10 1 8 5.2815 2.5229
-10 1 9 -4.1268 4.4526
-10 1 10 -12.4316 5.8054
-10 1 11 -13.9721 3.7361
-10 1 12 -7.2606 -17.1120
-10 1 13 17.8463 4.2609
-10 1 14 1.3389 10.5979
-10 1 15 -3.2470 -0.3513
-10 1 16 -6.8627 5.3446
-10 1 17 5.9676 -7.2501
-10 1 18 -12.0596 2.4685
-10 1 19 -2.6597 1.8940
-10 1 20 -10.0362 -6.6726
-10 1 21 4.9304 22.8351
-10 1 22 -3.1788 -6.4776
-10 1 23 -1.9266 4.4989
-10 2 1 -3.2188 7.4018
-10 2 2 4.0759 -1.5182
-10 2 3 -1.6235 3.7562
-10 2 4 8.4738 -9.0530
-10 2 5 -2.0338 -3.9358
-10 2 6 3.9010 21.5801
-10 2 7 5.1919 -1.4765
-10 2 8 -0.8907 2.3866
-10 2 9 -0.2915 0.0137
-10 2 10 7.6062 21.3739
-10 2 11 3.1494 5.8475
-10 2 12 -6.5881 0.7595
-10 2 13 -1.3368 3.1125
-10 2 14 -10.2999 15.5850
-10 2 15 5.4806 3.2540
-10 2 16 2.6189 -7.8478
-10 2 17 5.2305 3.1891
-10 2 18 -1.9233 -12.8793
-10 2 19 6.1242 6.9875
-10 2 20 0.3195 -6.0309
-10 2 21 -4.4755 -2.3124
-10 2 22 -8.1549 2.2372
-10 2 23 4.2855 1.2770
-10 3 1 23.2400 -1.1148
-10 3 2 2.3042 2.3899
-10 3 3 12.7257 0.9813
-10 3 4 3.9289 -3.8548
-10 3 5 18.3632 -11.0385
-10 3 6 8.0430 -6.4256
-10 3 7 -5.5465 2.1695
-10 3 8 8.7765 -2.2781
-10 3 9 -8.1147 4.6643
-10 3 10 -10.1327 -4.3434
-10 3 11 -3.3112 1.1078
-10 3 12 -2.8034 -15.7482
-10 3 13 3.1812 -9.5252
-10 3 14 7.2193 -5.3889
-10 3 15 14.4235 7.8731
-10 3 16 2.6584 8.5621
-10 3 17 -13.9286 7.0714
-10 3 18 5.4357 1.7833
-10 3 19 15.2900 -10.2043
-10 3 20 -3.3137 9.4537
-10 3 21 7.2384 11.4539
-10 3 22 -0.6286 -0.0359
-10 3 23 -3.8468 -9.2130
-10 4 1 -4.6351 13.1502
-10 4 2 -5.8602 -10.0698
-10 4 3 -7.5847 -0.6296
-10 4 4 -11.1412 10.9100
-10 4 5 -0.6581 -0.6919
-10 4 6 -12.3338 14.2589
-10 4 7 4.6792 6.3362
-10 4 8 -6.8314 0.3655
-10 4 9 1.0076 1.5881
-10 4 10 -9.2942 -19.5450
-10 4 11 -2.3202 4.0192
-10 4 12 2.5023 -8.4298
-10 4 13 -0.5685 -5.6245
-10 4 14 -2.3750 -4.9463
-10 4 15 -1.5902 -7.4861
-10 4 16 -29.3866 -21.1711
-10 4 17 2.9936 -3.0347
-10 4 18 7.0061 -10.7854
-10 4 19 -3.9865 -0.7006
-10 4 20 7.0816 7.5717
-10 4 21 0.0419 -0.4435
-10 4 22 -0.6120 -2.8003
-10 4 23 -4.6858 -5.4169
-10 5 1 1.2505 -1.1185
-10 5 2 -0.2712 -3.9735
-10 5 3 8.2670 -3.9358
-10 5 4 6.7437 -5.6936
-10 5 5 -3.1281 4.8070
-10 5 6 -2.6438 4.9088
-10 5 7 4.4236 -6.1313
-10 5 8 3.5020 8.5823
-10 5 9 3.3525 -9.9258
-10 5 10 -15.3174 -0.3007
-10 5 11 10.3052 -5.4657
-10 5 12 -2.8732 -3.0124
-10 5 13 -5.6549 2.4016
-10 5 14 3.6578 9.3538
-10 5 15 -0.3039 2.1817
-10 5 16 0.5922 4.8689
-10 5 17 -4.8353 -15.4338
-10 5 18 1.4988 5.8769
-10 5 19 16.8816 -11.6623
-10 5 20 -4.1383 -0.2144
-10 5 21 9.3967 2.4704
-10 5 22 2.5007 10.2157
-10 6 1 -4.1413 6.5956
-10 6 2 0.0141 17.9811
-10 6 3 -5.4438 3.2216
-10 6 4 -18.4624 -8.1812
-10 6 5 -2.4114 4.6768
-10 6 6 -16.4037 -6.8407
-10 6 7 0.9791 4.7939
-10 6 8 -14.7552 -17.9373
-10 6 9 -1.5652 3.1217
-10 6 10 13.7283 -21.7575
-10 6 11 -4.5133 0.7191
-10 6 12 8.4403 -0.2021
-10 6 13 -2.5108 -1.7211
-10 6 14 -4.0770 6.0220
-10 6 15 0.6264 -0.1499
-10 6 16 2.4600 -5.4939
-10 6 17 -1.7009 -5.2537
-10 6 18 -7.1763 -5.0473
-10 6 19 1.7531 3.0464
-10 6 20 1.2040 -5.6518
-10 6 21 -13.7965 2.4967
-10 6 22 1.6528 -0.9925
-10 7 1 -9.5741 8.0280
-10 7 2 -3.5870 20.7642
-10 7 3 -11.7238 12.1681
-10 7 4 -4.9790 7.3964
-10 7 5 -12.9013 -0.7134
-10 7 6 1.6115 -2.3780
-10 7 7 -17.0282 0.9581
-10 7 8 12.0188 -2.9707
-10 7 9 1.6473 -7.4804
-10 7 10 -5.6116 4.1781
-10 7 11 -14.2008 -1.9282
-10 7 12 3.6267 -14.1209
-10 7 13 4.7213 3.1800
-10 7 14 11.5536 -11.9605
-10 7 15 -11.5796 8.6884
-10 7 16 6.7239 -6.5019
-10 7 17 5.4518 12.2978
-10 7 18 4.9145 -0.1201
-10 7 19 0.8798 11.8869
-10 7 20 3.8800 -2.9014
-10 7 21 -0.0354 5.5816
-10 7 22 -2.5811 -10.4666
-10 8 1 -6.5906 -1.2849
-10 8 2 -3.3502 -7.6586
-10 8 3 -1.5695 -0.7633
-10 8 4 8.6804 10.7679
-10 8 5 4.6559 2.3924
-10 8 6 7.0399 6.3688
-10 8 7 -2.0493 9.0629
-10 8 8 17.1848 2.3353
-10 8 9 3.2235 5.9388
-10 8 10 -5.7315 4.6691
-10 8 11 -3.9051 -0.1298
-10 8 12 6.1542 3.8597
-10 8 13 4.7989 -6.3000
-10 8 14 -2.6536 10.1630
-10 8 15 3.1121 -5.6426
-10 8 16 -14.3182 -10.0263
-10 8 17 -3.3549 -4.3191
-10 8 18 9.7139 -10.5831
-10 8 19 -1.5658 -2.6950
-10 8 20 -1.9682 14.1700
-10 8 21 -2.3041 -1.9591
-10 9 1 6.4585 3.7920
-10 9 2 -0.7977 14.9264
-10 9 3 -14.1609 5.6690
-10 9 4 1.1397 -0.5149
-10 9 5 -4.9910 14.9436
-10 9 6 6.9162 -6.6077
-10 9 7 -14.7006 1.7187
-10 9 8 -6.0247 -6.0314
-10 9 9 -8.4586 -4.4580
-10 9 10 -4.4614 -2.5040
-10 9 11 0.5113 -7.5572
-10 9 12 1.1909 6.6623
-10 9 13 -1.8756 6.4280
-10 9 14 -5.6857 14.9313
-10 9 15 0.7148 1.2312
-10 9 16 -2.2988 -7.0496
-10 9 17 -4.3312 11.8596
-10 9 18 3.9815 -3.3927
-10 9 19 -8.1817 3.3572
-10 9 20 4.6204 1.8148
-10 9 21 -3.4108 -8.8868
-10 10 1 -2.8983 0.5551
-10 10 2 15.8401 -1.7909
-10 10 3 -5.7014 -0.3340
-10 10 4 19.5428 10.7202
-10 10 5 5.7177 -0.3409
-10 10 6 4.2404 5.4230
-10 10 7 1.5881 3.9997
-10 10 8 16.6742 5.4926
-10 10 9 1.1140 6.2155
-10 10 10 -1.3195 6.5872
-10 10 11 -2.7717 5.7921
-10 10 12 -4.2651 -16.6379
-10 10 13 0.4039 -3.8518
-10 10 14 -7.1320 -8.5008
-10 10 15 -1.7587 -7.5113
-10 10 16 -11.9993 2.6631
-10 10 17 -4.3059 -5.3117
-10 10 18 0.0768 -10.7232
-10 10 19 -8.3415 -4.6699
-10 10 20 -1.7237 -4.3797
-10 11 1 -18.9464 4.4089
-10 11 2 9.2333 2.7743
-10 11 3 0.7878 -21.4667
-10 11 4 11.5130 3.8139
-10 11 5 -3.5126 -11.2926
-10 11 6 5.0201 3.6355
-10 11 7 -0.9639 0.0018
-10 11 8 2.8235 -7.4238
-10 11 9 -5.1791 5.4438
-10 11 10 3.4890 -2.2146
-10 11 11 -4.1453 -12.5730
-10 11 12 -8.1711 -3.0598
-10 11 13 1.3019 -15.8908
-10 11 14 2.2352 -7.7955
-10 11 15 -4.5034 -7.0474
-10 11 16 1.8066 -0.0477
-10 11 17 13.4504 -0.0305
-10 11 18 -5.8473 7.0549
-10 11 19 -9.2675 3.8561
-10 11 20 -7.5562 1.6322
-10 12 1 0.1843 -10.4051
-10 12 2 -13.3560 2.1829
-10 12 3 0.3198 1.0700
-10 12 4 -15.7437 -1.4725
-10 12 5 -4.0866 -3.5957
-10 12 6 -6.6216 0.6728
-10 12 7 6.5462 -6.4673
-10 12 8 -11.0468 17.5271
-10 12 9 3.5506 5.0229
-10 12 10 1.0569 16.8462
-10 12 11 7.4871 0.0572
-10 12 12 -6.9647 -9.4305
-10 12 13 2.5769 6.2732
-10 12 14 -1.8697 -11.0534
-10 12 15 -0.2683 2.4548
-10 12 16 -13.1202 -9.6823
-10 12 17 -1.9418 -3.9752
-10 12 18 -7.5450 -6.6550
-10 12 19 -3.7161 -2.0739
-10 13 1 -0.9778 -10.9874
-10 13 2 5.9746 2.1183
-10 13 3 -2.3338 -9.9477
-10 13 4 1.4484 13.3235
-10 13 5 1.6834 -4.5329
-10 13 6 -3.7098 -8.1448
-10 13 7 7.4907 2.6959
-10 13 8 3.9605 3.9201
-10 13 9 -5.6543 -6.4743
-10 13 10 10.4609 12.0780
-10 13 11 10.7673 8.0866
-10 13 12 -5.7569 -4.6288
-10 13 13 -12.2635 16.8255
-10 13 14 2.1330 -7.3362
-10 13 15 -0.1578 -2.6107
-10 13 16 2.6823 6.3353
-10 13 17 2.9037 -3.9111
-10 13 18 5.6254 3.4783
-10 14 1 -2.0018 -2.7035
-10 14 2 18.6723 4.8949
-10 14 3 -1.7903 -9.2971
-10 14 4 -2.9336 -0.0626
-10 14 5 -6.2942 -4.1327
-10 14 6 8.2211 -12.7151
-10 14 7 -0.8205 -7.5111
-10 14 8 -5.6773 -4.8718
-10 14 9 4.0876 -2.2323
-10 14 10 -23.0049 -0.9979
-10 14 11 7.9941 2.7538
-10 14 12 4.8205 -3.4140
-10 14 13 -0.3381 -3.9823
-10 14 14 -1.7984 -0.0100
-10 14 15 2.6819 0.0568
-10 14 16 -2.7568 5.6399
-10 14 17 0.5987 4.2934
-10 14 18 -5.7108 3.2300
-10 15 1 11.1414 -8.0979
-10 15 2 -0.8410 -17.5033
-10 15 3 0.7639 0.6047
-10 15 4 3.6959 -9.4408
-10 15 5 9.2556 -6.7770
-10 15 6 6.8446 -3.6126
-10 15 7 15.3374 5.7475
-10 15 8 16.0343 7.3591
-10 15 9 1.0021 1.0758
-10 15 10 -4.3590 0.5210
-10 15 11 7.4599 11.5146
-10 15 12 11.4298 -3.7099
-10 15 13 -5.9596 -8.9670
-10 15 14 5.0570 -4.0331
-10 15 15 0.8350 -8.5526
-10 15 16 -0.8407 8.0219
-10 15 17 -0.4549 -4.5921
-10 16 1 -0.4817 -5.1111
-10 16 2 12.8667 8.3753
-10 16 3 2.0378 -2.3597
-10 16 4 2.4583 13.2182
-10 16 5 2.5146 1.7183
-10 16 6 -8.5774 -0.4297
-10 16 7 -2.5283 0.3336
-10 16 8 9.8672 7.2919
-10 16 9 -3.8619 -6.6695
-10 16 10 0.6727 4.4462
-10 16 11 2.1668 -2.8292
-10 16 12 -0.1784 6.0918
-10 16 13 7.2969 4.7872
-10 16 14 9.6060 11.1012
-10 16 15 5.1938 3.4128
-10 17 1 5.1064 15.2243
-10 17 2 -6.0842 1.1658
-10 17 3 -2.1670 -2.2845
-10 17 4 8.9327 -7.5105
-10 17 5 -3.0938 -4.5063
-10 17 6 9.4826 2.9132
-10 17 7 -10.1267 -0.6503
-10 17 8 -5.9117 -0.7367
-10 17 9 2.8282 3.2410
-10 17 10 6.5406 -6.1568
-10 17 11 2.8810 -2.5878
-10 17 12 3.6201 8.3328
-10 17 13 3.7383 2.2811
-10 17 14 0.9609 9.6256
-10 18 1 3.2533 -1.0868
-10 18 2 0.9513 8.7129
-10 18 3 -0.8245 -3.9925
-10 18 4 1.8596 2.9234
-10 18 5 -0.5951 -4.6386
-10 18 6 5.3812 4.0784
-10 18 7 2.9355 -3.0488
-10 18 8 5.7852 1.9347
-10 18 9 1.2376 -1.0047
-10 18 10 1.6888 7.3294
-10 18 11 -2.0168 -6.1500
-10 18 12 3.2941 -1.0109
-10 18 13 7.0463 -0.4462
-10 19 1 -7.2054 -6.7330
-10 19 2 1.2343 -8.5386
-10 19 3 -14.7991 0.8041
-10 19 4 -5.0452 5.3844
-10 19 5 -6.5667 -14.4390
-10 19 6 -10.1389 -1.4621
-10 19 7 -4.9336 -4.8343
-10 19 8 -0.6654 -4.1199
-10 19 9 -0.7098 0.0971
-10 19 10 3.6458 -4.0745
-10 19 11 -9.7658 -2.0633
-10 20 1 -3.1161 0.8223
-10 20 2 3.9621 -11.2288
-10 20 3 1.7952 -1.7624
-10 20 4 1.1369 -0.8027
-10 20 5 2.8867 -5.5571
-10 20 6 3.4640 3.6948
-10 20 7 4.9609 -1.0842
-10 20 8 -3.5735 8.6408
-10 20 9 -2.6462 1.3448
-10 21 1 5.2890 2.2435
-10 21 2 9.8738 -1.4111
-10 21 3 -6.6467 8.4153
-10 21 4 7.1513 8.0534
-10 21 5 -11.8647 10.0466
-10 21 6 -3.3225 7.4014
-9 0 2 0.6456 -1.8574
-9 0 4 6.7183 -5.3457
-9 0 6 4.2275 7.4962
-9 0 8 -3.4021 1.5159
-9 0 10 8.6587 -6.1394
-9 0 12 6.1257 6.6707
-9 0 14 5.3219 7.1386
-9 0 16 0.0379 3.1942
-9 0 18 -0.0143 -2.6434
-9 0 20 -6.6282 -2.9402
-9 0 22 -0.3274 -3.4723
-9 1 1 -4.4956 5.0047
-9 1 2 5.2773 7.5847
-9 1 3 7.3491 -5.3182
-9 1 4 -23.1818 -7.9219
-9 1 5 39.3615 -6.4604
-9 1 6 -0.8722 4.5302
-9 1 7 5.8987 -4.2972
-9 1 8 -9.0208 14.5901
-9 1 9 5.9073 13.0196
-9 1 10 -10.6152 8.1523
-9 1 11 9.0269 -14.3958
-9 1 12 11.0646 -16.1625
-9 1 13 -15.4524 -3.1896
-9 1 14 1.6630 5.9490
-9 1 15 -6.3663 3.0528
-9 1 16 -8.9633 2.2387
-9 1 17 3.1625 0.6534
-9 1 18 1.7629 4.1879
-9 1 19 1.8089 2.5326
-9 1 20 9.6101 16.5377
-9 1 21 -4.5301 -4.4252
-9 1 22 -15.1096 7.7774
-9 1 23 -2.7371 3.2149
-9 2 1 -0.2834 0.4539
-9 2 2 -0.1449 -4.4502
-9 2 3 -16.1282 45.8005
-9 2 4 -5.4919 1.9616
-9 2 5 19.0045 15.5718
-9 2 6 4.4699 -7.8337
-9 2 7 15.4275 14.6870
-9 2 8 -3.0490 4.9611
-9 2 9 0.2891 10.6669
-9 2 10 5.1555 1.9959
-9 2 11 -0.6726 -7.7302
-9 2 12 2.8244 1.1189
-9 2 13 8.4669 5.9077
-9 2 14 4.5155 -0.0450
-9 2 15 -18.4303 16.4338
-9 2 16 -4.1092 10.5129
-9 2 17 -14.1969 7.1417
-9 2 18 -11.5025 1.8483
-9 2 19 -3.6332 -7.8612
-9 2 20 0.7131 6.8423
-9 2 21 14.1589 -8.6070
-9 2 22 -2.6694 6.2210
-9 2 23 -0.1232 -7.3923
-9 3 1 -20.5551 -0.8698
-9 3 2 1.8683 11.3094
-9 3 3 -12.8719 -27.9625
-9 3 4 -16.1291 23.3824
-9 3 5 3.6481 -10.6717
-9 3 6 -3.0679 -13.4528
-9 3 7 16.7996 -12.4863
-9 3 8 1.9618 -1.2951
-9 3 9 10.5529 -1.4360
-9 3 10 1.6523 -19.7403
-9 3 11 -1.2461 9.9110
-9 3 12 -6.2094 11.6501
-9 3 13 8.7610 -2.9555
-9 3 14 -0.6853 0.7134
-9 3 15 10.5167 -10.6420
-9 3 16 -4.4512 11.0325
-9 3 17 0.4947 12.5276
-9 3 18 -7.0932 -2.7661
-9 3 19 -4.4424 6.9035
-9 3 20 -5.9578 8.1720
-9 3 21 -3.9781 -1.8639
-9 3 22 -1.4283 4.7272
-9 3 23 -6.3782 -4.7713
-9 4 1 5.0482 -24.3348
-9 4 2 -4.8212 0.2931
-9 4 3 37.0381 -23.5010
-9 4 4 -2.1569 -1.9057
-9 4 5 -12.1800 -3.1341
-9 4 6 -0.9935 3.1416
-9 4 7 7.6591 1.7471
-9 4 8 0.5004 6.2021
-9 4 9 -13.0357 -8.8455
-9 4 10 -6.3809 -1.4998
-9 4 11 10.6721 12.4038
-9 4 12 -2.7108 1.4927
-9 4 13 9.2613 24.9572
-9 4 14 -3.6253 -7.1862
-9 4 15 -6.5875 21.1016
-9 4 16 0.7099 6.3832
-9 4 17 -3.6206 3.5653
-9 4 18 -0.8105 4.1292
-9 4 19 9.5055 -22.6847
-9 4 20 0.8853 -0.6877
-9 4 21 -1.7337 0.0308
-9 4 22 0.1950 3.8416
-9 4 23 -3.4437 7.8104
-9 5 1 -3.6332 2.9395
-9 5 2 -1.1319 13.8105
-9 5 3 -13.9802 -0.8291
-9 5 4 9.5508 2.1238
-9 5 5 7.2244 -20.7603
-9 5 6 -0.1773 -2.7061
-9 5 7 6.7589 -11.7860
-9 5 8 0.2778 0.8370
-9 5 9 4.4795 4.6799
-9 5 10 -3.9773 4.8900
-9 5 11 6.6643 -9.6264
-9 5 12 1.5588 -1.2101
-9 5 13 -14.1524 -22.6389
-9 5 14 -1.5848 0.3313
-9 5 15 -10.0636 -11.3460
-9 5 16 14.3085 -4.1780
-9 5 17 7.1560 -6.3560
-9 5 18 9.3868 5.9524
-9 5 19 4.6825 -3.0415
-9 5 20 0.3198 -6.7210
-9 5 21 -0.2195 4.5859
-9 5 22 9.4984 -0.1179
-9 5 23 5.0964 6.1492
-9 6 1 -13.1200 -16.4604
-9 6 2 2.4426 3.9792
-9 6 3 -1.2643 7.4251
-9 6 4 -0.4642 -3.9450
-9 6 5 7.2563 3.0321
-9 6 6 0.4456 0.2327
-9 6 7 -5.9724 -26.0046
-9 6 8 3.7440 -1.2352
-9 6 9 15.1956 8.1444
-9 6 10 6.3216 3.0497
-9 6 11 12.0330 -3.1458
-9 6 12 1.0078 5.2336
-9 6 13 -0.8403 12.8831
-9 6 14 -0.0052 0.8627
-9 6 15 10.8591 1.2131
-9 6 16 -0.0665 -4.5828
-9 6 17 -4.2771 18.0818
-9 6 18 -3.7932 4.9752
-9 6 19 -7.3936 16.0764
-9 6 20 0.6961 4.1525
-9 6 21 -8.0376 3.6352
-9 6 22 0.3410 5.0490
-9 6 23 2.2558 -13.0292
-9 7 1 -3.1441 15.1816
-9 7 2 -2.1154 -6.8000
-9 7 3 4.5125 -10.3865
-9 7 4 -1.1743 -7.7851
-9 7 5 -4.6466 -8.6482
-9 7 6 9.6788 -6.3883
-9 7 7 -1.3874 -6.3825
-9 7 8 9.1610 -9.9291
-9 7 9 -1.4447 -8.6861
-9 7 10 3.9861 -0.4223
-9 7 11 9.9752 -2.8975
-9 7 12 -7.3953 6.9252
-9 7 13 14.1843 1.0370
-9 7 14 -8.7814 -6.5638
-9 7 15 9.1649 -7.0065
-9 7 16 10.6963 -16.7187
-9 7 17 2.8439 -3.4512
-9 7 18 5.4100 -8.6618
-9 7 19 1.9745 6.7840
-9 7 20 7.5191 -8.3448
-9 7 21 -5.0991 1.8950
-9 7 22 12.5662 3.9041
-9 8 1 16.2269 -6.5954
-9 8 2 -9.5427 -1.4264
-9 8 3 17.7605 -5.6461
-9 8 4 -3.2317 -2.4697
-9 8 5 -21.8404 -6.9777
-9 8 6 -0.6468 1.2697
-9 8 7 -2.3665 -18.6209
-9 8 8 3.9551 7.0578
-9 8 9 9.9536 -8.9720
-9 8 10 3.3508 7.4488
-9 8 11 8.6766 -15.9912
-9 8 12 -2.4762 2.9848
-9 8 13 7.9665 -0.4355
-9 8 14 -5.5875 2.2190
-9 8 15 6.7294 10.6606
-9 8 16 1.0471 -0.9813
-9 8 17 6.9398 8.1168
-9 8 18 3.3489 2.8788
-9 8 19 -3.3909 10.9041
-9 8 20 -5.7960 -3.3390
-9 8 21 -11.0433 -9.9662
-9 8 22 8.7564 -4.8744
-9 9 1 -3.2883 -7.8304
-9 9 2 1.1789 -0.2695
-9 9 3 -9.8933 3.5168
-9 9 4 1.6593 8.7032
-9 9 5 -1.6135 -1.7260
-9 9 6 -4.8268 -1.2073
-9 9 7 -1.1748 14.3961
-9 9 8 5.3593 4.8056
-9 9 9 -4.2051 -4.9996
-9 9 10 -1.9697 3.8068
-9 9 11 -0.5864 -5.3214
-9 9 12 -13.0940 9.0810
-9 9 13 6.4572 -4.5450
-9 9 14 -3.7271 0.7181
-9 9 15 11.4078 -0.0670
-9 9 16 3.7781 -0.0536
-9 9 17 4.2485 -1.7165
-9 9 18 5.9944 14.8379
-9 9 19 3.0131 -0.4186
-9 9 20 3.5267 4.9958
-9 9 21 3.7397 -2.5908
-9 10 1 0.7056 -10.3858
-9 10 2 -2.5518 -5.9941
-9 10 3 -1.0862 4.2974
-9 10 4 1.8335 -5.8889
-9 10 5 3.2627 8.5867
-9 10 6 1.7499 -0.3570
-9 10 7 1.5670 27.3346
-9 10 8 -0.9790 -6.8077
-9 10 9 9.2573 3.2597
-9 10 10 1.6934 1.8861
-9 10 11 0.7704 -0.4990
-9 10 12 7.6830 3.3707
-9 10 13 -8.7577 -22.1034
-9 10 14 3.3659 2.4329
-9 10 15 3.5326 1.3021
-9 10 16 -0.0865 1.8173
-9 10 17 2.6151 16.8386
-9 10 18 -9.1568 0.3479
-9 10 19 -1.3952 15.3277
-9 10 20 7.7393 -11.2500
-9 10 21 -4.6742 12.8656
-9 11 1 9.5942 -3.2029
-9 11 2 -9.4486 9.2459
-9 11 3 13.5230 -3.4666
-9 11 4 -2.0960 7.1714
-9 11 5 4.8676 4.7027
-9 11 6 -1.3068 0.5712
-9 11 7 -1.4752 1.1690
-9 11 8 1.8248 4.5346
-9 11 9 -8.3614 7.5009
-9 11 10 3.3370 -5.0429
-9 11 11 -3.6661 -16.8555
-9 11 12 2.9528 -5.5231
-9 11 13 3.6428 -8.0749
-9 11 14 3.2297 -9.2369
-9 11 15 8.1931 11.2349
-9 11 16 1.2344 -0.4155
-9 11 17 2.8280 12.2434
-9 11 18 9.2222 -2.5246
-9 11 19 -2.7871 -0.9409
-9 11 20 -4.8306 3.8986
-9 12 1 3.7376 -12.6992
-9 12 2 1.6933 -2.3035
-9 12 3 6.5879 2.8114
-9 12 4 4.9447 -2.6556
-9 12 5 -0.8456 0.0196
-9 12 6 -0.4610 -0.8737
-9 12 7 -5.9898 11.9814
-9 12 8 2.4095 4.7526
-9 12 9 -10.2494 24.9988
-9 12 10 -2.5594 -0.2383
-9 12 11 -6.6931 7.1831
-9 12 12 5.6717 1.7519
-9 12 13 1.1355 -3.8779
-9 12 14 3.1210 7.7421
-9 12 15 7.7314 -4.4898
-9 12 16 3.1682 1.0749
-9 12 17 0.0817 -4.4739
-9 12 18 -4.9561 -1.5007
-9 12 19 5.4141 -12.5471
-9 12 20 -4.9573 -5.4052
-9 13 1 -3.7507 9.9810
-9 13 2 -0.9733 3.0487
-9 13 3 -8.5207 10.7862
-9 13 4 -15.9798 -5.4094
-9 13 5 -15.0180 8.9412
-9 13 6 -0.3528 -21.6451
-9 13 7 -0.7385 -1.3369
-9 13 8 -10.4436 -12.0212
-9 13 9 -4.7086 -6.7818
-9 13 10 -1.2132 -7.0923
-9 13 11 3.9747 -1.5682
-9 13 12 8.5642 -0.1314
-9 13 13 10.6994 2.1667
-9 13 14 11.5322 -2.3936
-9 13 15 5.1177 -0.7266
-9 13 16 -3.8697 2.1850
-9 13 17 3.7336 5.6179
-9 13 18 -5.3154 3.9739
-9 13 19 -3.2823 5.5121
-9 14 1 16.6104 -0.7791
-9 14 2 2.5832 -1.1246
-9 14 3 16.0165 -0.4921
-9 14 4 1.8747 -2.2090
-9 14 5 -7.3206 13.9094
-9 14 6 -0.7174 -5.9302
-9 14 7 -4.0976 10.2991
-9 14 8 -1.8009 -6.3658
-9 14 9 -22.1468 3.8716
-9 14 10 0.8302 1.4515
-9 14 11 -21.7958 -1.7305
-9 14 12 0.5573 -5.7392
-9 14 13 0.5461 -6.6445
-9 14 14 3.0607 1.7436
-9 14 15 -6.0472 -2.8855
-9 14 16 5.7633 5.8980
-9 14 17 -3.9243 -7.0097
-9 14 18 2.1811 1.9920
-9 15 1 -2.9411 5.2640
-9 15 2 -1.4534 4.1993
-9 15 3 -6.7331 6.7033
-9 15 4 -7.0478 -1.6587
-9 15 5 5.0521 0.2567
-9 15 6 -9.2531 6.1941
-9 15 7 -5.7047 7.7670
-9 15 8 8.2788 -5.5783
-9 15 9 -4.4400 2.0005
-9 15 10 1.5381 -0.1637
-9 15 11 10.4801 -4.0014
-9 15 12 10.0202 -22.5633
-9 15 13 -0.1931 -0.6255
-9 15 14 5.9170 14.3842
-9 15 15 0.2733 -3.3845
-9 15 16 -7.2900 8.2931
-9 15 17 3.6925 -3.0555
-9 16 1 11.5753 5.8824
-9 16 2 -5.7599 0.8235
-9 16 3 -8.2335 4.6647
-9 16 4 6.7243 0.3983
-9 16 5 17.3083 3.2220
-9 16 6 -4.2681 4.1031
-9 16 7 -5.5947 6.9199
-9 16 8 -7.6927 0.8173
-9 16 9 -7.7362 -0.4650
-9 16 10 -8.2274 -6.0815
-9 16 11 -6.1865 6.7819
-9 16 12 4.1190 1.1736
-9 16 13 -10.6101 -0.7126
-9 16 14 3.7912 -1.0020
-9 16 15 -9.3673 1.3353
-9 16 16 3.0010 1.2689
-9 17 1 0.9027 5.5453
-9 17 2 4.0906 16.1075
-9 17 3 5.3081 -8.4613
-9 17 4 0.3972 9.1262
-9 17 5 7.8288 -0.9591
-9 17 6 1.0813 7.3711
-9 17 7 1.2522 3.9429
-9 17 8 5.1326 1.7563
-9 17 9 -2.2048 -6.0747
-9 17 10 -2.1804 -2.0435
-9 17 11 -3.0585 6.0671
-9 17 12 18.4808 1.1742
-9 17 13 2.1934 3.6162
-9 17 14 7.4652 9.5866
-9 17 15 3.1829 4.7769
-9 18 1 -7.4028 -12.8873
-9 18 2 1.6261 -5.2667
-9 18 3 -8.0748 -1.5916
-9 18 4 -2.7972 -1.9327
-9 18 5 5.8732 -6.5182
-9 18 6 -1.5769 0.1479
-9 18 7 19.1259 11.7160
-9 18 8 -1.1457 3.1950
-9 18 9 -1.9241 3.4750
-9 18 10 -4.2140 -3.1496
-9 18 11 2.8810 -7.2786
-9 18 12 1.6345 -5.2848
-9 18 13 -4.2509 11.8397
-9 18 14 -2.3759 0.0891
-9 19 1 -3.3149 -8.5790
-9 19 2 0.4265 -1.7456
-9 19 3 5.8133 -2.2583
-9 19 4 7.8052 -4.7390
-9 19 5 2.1855 0.7395
-9 19 6 -3.3257 -7.4725
-9 19 7 0.6721 4.1294
-9 19 8 1.8766 -7.4379
-9 19 9 3.0793 -3.0776
-9 19 10 5.0492 -2.4256
-9 19 11 0.5576 1.3088
-9 19 12 -4.0651 0.1564
-9 20 1 1.6703 2.3599
-9 20 2 -0.1161 -1.9640
-9 20 3 -2.9149 -4.2087
-9 20 4 -1.2637 0.1902
-9 20 5 10.7250 -13.8755
-9 20 6 6.2793 -1.4780
-9 20 7 -0.2864 -0.6940
-9 20 8 -0.8625 -1.0527
-9 20 9 -3.2773 2.6627
-9 20 10 1.8350 -5.5114
-9 21 1 -0.8633 -0.9684
-9 21 2 1.4320 -3.6168
-9 21 3 -5.8702 -0.7915
-9 21 4 8.3114 -0.9688
-9 21 5 2.0813 -1.2031
-9 21 6 9.2882 -1.9816
-9 21 7 -3.1056 -0.2586
-9 22 1 1.7209 -6.8305
-9 22 2 0.2533 6.0689
-9 22 3 7.1033 -10.8790
-8 0 2 23.0705 35.6267
-8 0 4 -25.6247 -19.7364
-8 0 6 33.9300 -11.8766
-8 0 8 -3.6094 6.1598
-8 0 10 -0.6485 -2.0916
-8 0 12 -15.0040 -13.0837
-8 0 14 3.4412 -7.2165
-8 0 16 10.0758 5.9752
-8 0 18 26.4988 -27.6592
-8 0 20 18.7821 -33.2133
-8 0 22 -6.8389 16.5071
-8 0 24 3.1179 -8.8673
-8 1 1 -17.7157 17.5269
-8 1 2 -3.0891 -19.5337
-8 1 3 -12.7097 -1.6984
-8 1 4 14.1758 -4.3662
-8 1 5 -4.6976 -2.6223
-8 1 6 -26.9642 0.7097
-8 1 7 -5.7814 -9.3772
-8 1 8 -9.8818 -14.6619
-8 1 9 -14.6027 -8.7874
-8 1 10 -1.8785 -9.0694
-8 1 11 5.5798 -1.1858
-8 1 12 15.1396 -1.8858
-8 1 13 11.0217 -5.4439
-8 1 14 2.0518 7.1208
-8 1 15 10.1823 -9.2062
-8 1 16 8.7267 5.5437
-8 1 17 -6.5964 13.2240
-8 1 18 -2.1736 -0.2784
-8 1 19 1.5637 -12.6238
-8 1 20 -2.8319 -4.2977
-8 1 21 -3.1347 3.4936
-8 1 22 0.2030 1.6396
-8 1 23 -1.8207 1.1531
-8 1 24 4.6248 2.8126
-8 2 1 5.0365 6.7037
-8 2 2 -18.7188 -12.7923
-8 2 3 -1.9727 6.6732
-8 2 4 -3.2354 -3.6504
-8 2 5 3.1001 1.4288
-8 2 6 6.2460 -19.6917
-8 2 7 5.3407 0.7994
-8 2 8 11.7709 1.9550
-8 2 9 -0.8835 1.1158
-8 2 10 7.1571 13.0925
-8 2 11 7.0791 -0.7941
-8 2 12 4.6810 -0.4683
-8 2 13 -1.0553 7.2259
-8 2 14 -6.0749 0.8020
-8 2 15 0.4818 7.1464
-8 2 16 -0.7918 -8.4690
-8 2 17 -1.8941 4.1997
-8 2 18 -15.6441 -7.3093
-8 2 19 -3.1612 -0.3911
-8 2 20 8.0856 18.0145
-8 2 21 -3.5349 -6.9909
-8 2 22 -6.9288 2.1269
-8 2 23 -2.2367 -2.5919
-8 2 24 -2.9937 -5.2325
-8 3 1 8.9070 13.3992
-8 3 2 4.2646 2.3226
-8 3 3 16.7316 4.1207
-8 3 4 -5.3356 0.1346
-8 3 5 1.5863 19.4667
-8 3 6 11.7550 12.2530
-8 3 7 4.4875 1.6331
-8 3 8 3.3121 4.4976
-8 3 9 -13.8256 -2.5199
-8 3 10 9.6631 -5.4620
-8 3 11 -2.2850 3.5782
-8 3 12 -3.7870 -1.5017
-8 3 13 7.3321 -7.6842
-8 3 14 6.2406 12.7594
-8 3 15 12.2524 13.1419
-8 3 16 -0.4097 21.4327
-8 3 17 -8.6599 -10.2094
-8 3 18 3.8000 6.6734
-8 3 19 -9.3050 0.4812
-8 3 20 -4.0878 -1.2924
-8 3 21 3.7578 -7.7570
-8 3 22 4.3341 -7.0522
-8 3 23 8.8565 11.1272
-8 3 24 3.4084 2.7999
-8 4 1 3.8261 5.2791
-8 4 2 0.6343 -0.7049
-8 4 3 -0.7104 -1.2259
-8 4 4 -0.0944 -16.2229
-8 4 5 3.3676 -2.8925
-8 4 6 -3.5804 12.6309
-8 4 7 -1.9232 -2.7755
-8 4 8 22.4935 12.5369
-8 4 9 5.7231 -3.0378
-8 4 10 13.3926 12.0527
-8 4 11 1.9928 4.0831
-8 4 12 -4.5004 11.1094
-8 4 13 4.7414 3.4939
-8 4 14 2.6917 -12.7071
-8 4 15 -5.6789 -2.6152
-8 4 16 3.0022 14.9513
-8 4 17 2.7799 -1.1000
-8 4 18 -5.0907 15.3936
-8 4 19 -0.4334 1.7218
-8 4 20 -18.4974 12.1242
-8 4 21 -2.0065 0.2300
-8 4 22 -0.1491 -6.3104
-8 4 23 1.0896 -3.5619
-8 5 1 -12.4847 -12.7840
-8 5 2 -0.5662 -10.2951
-8 5 3 15.8458 10.9173
-8 5 4 9.4284 -7.6806
-8 5 5 2.7288 17.1870
-8 5 6 2.9900 -7.9573
-8 5 7 -19.4664 17.1589
-8 5 8 -9.6653 10.3019
-8 5 9 6.0228 13.9536
-8 5 10 7.6109 1.8664
-8 5 11 3.6381 25.2338
-8 5 12 -3.3982 16.3131
-8 5 13 -1.7614 0.9736
-8 5 14 -0.3101 -4.1453
-8 5 15 -0.5882 2.8389
-8 5 16 -0.3575 0.9044
-8 5 17 4.1208 7.3071
-8 5 18 -3.8715 12.5249
-8 5 19 2.6739 5.6885
-8 5 20 -8.3406 -1.2692
-8 5 21 -2.7898 -1.8852
-8 5 22 -2.9777 -6.4513
-8 5 23 -3.0887 -11.3440
-8 6 1 1.3994 -1.0890
-8 6 2 -21.4987 12.0637
-8 6 3 1.5409 2.6376
-8 6 4 16.2140 -21.5458
-8 6 5 11.0581 -5.2139
-8 6 6 25.4663 8.3736
-8 6 7 3.2944 -1.6807
-8 6 8 -2.0946 -1.1819
-8 6 9 12.1789 -2.3948
-8 6 10 1.1410 1.1529
-8 6 11 -3.1134 1.8809
-8 6 12 -5.5370 16.7133
-8 6 13 -0.5552 -2.0763
-8 6 14 -1.0359 10.2383
-8 6 15 -3.1459 -0.7239
-8 6 16 -6.7733 10.8794
-8 6 17 5.4428 -2.5278
-8 6 18 -6.5723 0.5046
-8 6 19 4.6901 5.5878
-8 6 20 -3.6257 -2.0603
-8 6 21 -1.5872 -3.4365
-8 6 22 -6.9508 -0.1193
-8 6 23 -4.4714 5.0829
-8 7 1 15.7341 -8.7730
-8 7 2 2.9646 -3.4442
-8 7 3 5.4581 -2.3483
-8 7 4 -13.1026 -9.0150
-8 7 5 3.7044 9.6869
-8 7 6 15.5334 -2.7859
-8 7 7 1.8144 -3.6738
-8 7 8 -9.0319 3.0662
-8 7 9 11.2453 8.5955
-8 7 10 -5.3186 -6.6327
-8 7 11 3.2798 8.2799
-8 7 12 5.2034 0.5247
-8 7 13 2.6644 14.3429
-8 7 14 6.6509 -1.3829
-8 7 15 -1.5895 14.2567
-8 7 16 -0.1519 -0.5093
-8 7 17 -13.0689 4.3141
-8 7 18 -1.0320 1.9667
-8 7 19 -4.7595 -10.9541
-8 7 20 0.8374 2.1331
-8 7 21 -5.0852 -7.5248
-8 7 22 5.0859 -0.4202
-8 7 23 4.4490 -4.7008
-8 8 1 5.9863 -2.8461
-8 8 2 -1.6003 -8.1984
-8 8 3 3.1779 4.0331
-8 8 4 -4.6100 6.7425
-8 8 5 2.5916 2.2440
-8 8 6 3.4046 19.6051
-8 8 7 -7.6753 -0.0351
-8 8 8 -12.4770 -13.0469
-8 8 9 2.7367 2.0068
-8 8 10 8.9533 -22.7316
-8 8 11 -0.9972 0.6721
-8 8 12 -7.4890 -1.3816
-8 8 13 -3.4881 -2.4348
-8 8 14 -12.3361 20.8525
-8 8 15 -0.7107 0.1976
-8 8 16 -16.7798 6.4386
-8 8 17 -3.2220 -4.8098
-8 8 18 -13.9866 -1.9553
-8 8 19 -0.5971 -3.4058
-8 8 20 -7.4152 -4.9676
-8 8 21 -2.8161 2.9319
-8 8 22 -3.0302 0.9316
-8 9 1 -0.1592 1.6682
-8 9 2 -4.4434 7.3166
-8 9 3 -4.7938 -9.3327
-8 9 4 -7.3389 -10.3715
-8 9 5 -12.8679 -4.4750
-8 9 6 -2.4558 -13.6424
-8 9 7 2.4259 -7.5068
-8 9 8 4.8438 -3.7892
-8 9 9 13.5094 0.9334
-8 9 10 -5.6683 4.9638
-8 9 11 2.3129 8.9222
-8 9 12 3.1565 10.9409
-8 9 13 -0.6590 1.7367
-8 9 14 -5.6048 -4.2918
-8 9 15 1.4414 11.6475
-8 9 16 12.0071 -6.3611
-8 9 17 -2.2730 -17.4469
-8 9 18 9.7376 -4.9784
-8 9 19 5.3178 1.4722
-8 9 20 1.6712 4.8369
-8 9 21 0.3946 -5.6751
-8 9 22 -2.5045 1.2017
-8 10 1 1.6899 3.8628
-8 10 2 -3.3013 1.4095
-8 10 3 -2.2902 -0.8419
-8 10 4 -0.0420 2.9270
-8 10 5 1.6050 4.2361
-8 10 6 -0.3890 -9.3549
-8 10 7 4.5254 2.6042
-8 10 8 -0.6320 -0.7833
-8 10 9 -2.7158 4.5046
-8 10 10 5.3443 -5.8762
-8 10 11 -6.5287 -2.9880
-8 10 12 9.3476 -6.6849
-8 10 13 -3.1202 0.0175
-8 10 14 7.5606 -3.1236
-8 10 15 1.9196 -3.6391
-8 10 16 -27.2960 3.3882
-8 10 17 -5.1261 6.4159
-8 10 18 -5.3032 -13.2278
-8 10 19 -3.5979 -1.7305
-8 10 20 6.1422 2.2378
-8 10 21 0.7923 -0.8787
-8 11 1 -23.6558 1.4025
-8 11 2 14.8870 -6.6632
-8 11 3 -5.6319 -6.3604
-8 11 4 -5.7621 4.5673
-8 11 5 1.7111 -2.8466
-8 11 6 -5.7332 -10.0391
-8 11 7 3.4538 11.2219
-8 11 8 4.7788 3.5916
-8 11 9 4.2885 24.2961
-8 11 10 15.2818 3.1597
-8 11 11 0.4270 -1.1549
-8 11 12 -1.8430 4.1422
-8 11 13 5.6899 -4.0758
-8 11 14 5.3488 9.1791
-8 11 15 -1.9658 5.0198
-8 11 16 14.5616 2.9798
-8 11 17 8.2538 13.5593
-8 11 18 -4.4050 2.7577
-8 11 19 9.7008 4.9696
-8 11 20 3.4414 -4.9972
-8 11 21 -6.3899 8.0749
-8 12 1 1.5694 -5.3995
-8 12 2 -1.2616 -24.2178
-8 12 3 0.4675 -3.8845
-8 12 4 7.7820 -18.2844
-8 12 5 3.5743 -7.1990
-8 12 6 18.9229 -8.0495
-8 12 7 6.4246 1.9396
-8 12 8 11.7503 16.6692
-8 12 9 -0.2863 -1.8983
-8 12 10 -5.1491 26.0923
-8 12 11 3.9065 3.6522
-8 12 12 11.0472 -0.4263
-8 12 13 1.6621 0.4001
-8 12 14 -0.3158 -1.6211
-8 12 15 -1.7003 -1.9096
-8 12 16 5.0138 -5.3388
-8 12 17 1.0141 -2.3206
-8 12 18 -3.6663 9.7349
-8 12 19 -4.6052 2.0538
-8 12 20 1.6237 3.8836
-8 13 1 4.3247 1.8759
-8 13 2 7.0640 5.3116
-8 13 3 -16.1945 2.2011
-8 13 4 -2.2464 -1.4644
-8 13 5 -8.8859 -7.9261
-8 13 6 6.1844 -6.9036
-8 13 7 10.0160 3.5280
-8 13 8 7.1528 -19.5354
-8 13 9 14.9615 6.9800
-8 13 10 7.2404 10.9666
-8 13 11 -18.6232 7.2028
-8 13 12 -1.5987 15.0240
-8 13 13 -7.6249 5.1815
-8 13 14 -4.4762 -7.1032
-8 13 15 -6.3738 -1.9584
-8 13 16 -9.3478 3.6253
-8 13 17 4.7002 0.5150
-8 13 18 -3.5447 2.9305
-8 13 19 2.6315 2.0066
-8 14 1 -5.3182 0.6399
-8 14 2 6.8519 12.1904
-8 14 3 9.8023 2.7943
-8 14 4 19.1659 -9.2647
-8 14 5 -2.9655 4.4301
-8 14 6 13.5114 8.7768
-8 14 7 6.3796 -5.1745
-8 14 8 -2.0490 7.7404
-8 14 9 3.3041 -0.5580
-8 14 10 -9.7047 -4.4056
-8 14 11 7.8883 4.9502
-8 14 12 -3.1027 -7.8666
-8 14 13 0.7797 4.3223
-8 14 14 15.3204 -2.1473
-8 14 15 -5.1057 5.6714
-8 14 16 9.1024 2.5678
-8 14 17 -7.7563 -0.2014
-8 14 18 -0.9871 3.4000
-8 14 19 -5.6684 -3.2581
-8 15 1 21.8349 17.4673
-8 15 2 7.7096 -13.1153
-8 15 3 -0.0009 0.8341
-8 15 4 -2.9159 -2.7816
-8 15 5 1.1866 2.9722
-8 15 6 -6.9371 -7.9299
-8 15 7 -2.4598 -5.4643
-8 15 8 -1.9732 3.9273
-8 15 9 -8.5792 5.7584
-8 15 10 12.8287 4.4311
-8 15 11 -0.5132 0.0885
-8 15 12 -3.5480 11.9796
-8 15 13 1.2544 -1.7395
-8 15 14 -4.3545 3.3193
-8 15 15 -11.1653 0.4867
-8 15 16 -5.6189 3.3746
-8 15 17 1.2719 -9.6584
-8 15 18 -5.2854 -6.3863
-8 16 1 -1.2255 4.9127
-8 16 2 0.9126 10.6461
-8 16 3 0.3079 10.2239
-8 16 4 -6.9282 -7.7751
-8 16 5 -4.7307 7.9209
-8 16 6 5.5440 -18.2421
-8 16 7 -2.1188 0.0855
-8 16 8 -8.4923 -0.5113
-8 16 9 0.5406 0.3575
-8 16 10 -11.7744 -6.6337
-8 16 11 -3.3315 -2.0680
-8 16 12 -11.4181 0.8297
-8 16 13 -4.9376 4.7052
-8 16 14 -4.8317 -5.4437
-8 16 15 -4.2958 -0.4638
-8 16 16 -8.7720 4.8819
-8 16 17 0.6656 6.3442
-8 17 1 -16.2442 -7.6599
-8 17 2 -3.5311 -2.8317
-8 17 3 2.3577 4.4532
-8 17 4 1.1512 2.3643
-8 17 5 -9.5318 3.7407
-8 17 6 0.8662 8.2763
-8 17 7 0.4396 -0.7680
-8 17 8 -3.4295 -8.7931
-8 17 9 1.6005 1.4722
-8 17 10 -3.1528 -1.2091
-8 17 11 -1.6983 4.8907
-8 17 12 -2.5804 2.1912
-8 17 13 -1.4094 8.0153
-8 17 14 -2.9947 0.5031
-8 17 15 2.3082 -3.6382
-8 17 16 2.2463 8.5330
-8 18 1 -4.7811 -1.3013
-8 18 2 -4.4277 -4.2030
-8 18 3 -0.6708 8.7110
-8 18 4 -0.9131 -0.5691
-8 18 5 -0.6990 0.4825
-8 18 6 -3.4411 1.3223
-8 18 7 -0.1450 5.1538
-8 18 8 12.2434 4.8331
-8 18 9 -5.9546 9.6679
-8 18 10 -2.2551 8.2240
-8 18 11 -9.3793 1.6152
-8 18 12 -0.7708 5.3034
-8 18 13 -1.5412 0.0517
-8 18 14 -8.8404 0.1418
-8 19 1 -1.1505 -7.9296
-8 19 2 0.8539 0.5857
-8 19 3 -1.7593 0.7310
-8 19 4 8.1851 -12.6182
-8 19 5 2.5017 -1.9475
-8 19 6 2.0268 -8.0645
-8 19 7 -5.1615 -1.9815
-8 19 8 -3.7013 3.0322
-8 19 9 -1.9648 -4.8536
-8 19 10 5.0922 -1.1646
-8 19 11 8.2469 -4.0320
-8 19 12 2.5545 -0.9384
-8 19 13 4.2753 -0.5043
-8 20 1 3.6139 0.9683
-8 20 2 -0.0957 -2.9795
-8 20 3 1.5144 1.5908
-8 20 4 -6.5231 2.3039
-8 20 5 -4.0002 2.1281
-8 20 6 3.2271 -9.4015
-8 20 7 -0.7999 1.1763
-8 20 8 3.6221 -1.1377
-8 20 9 -2.9477 5.1785
-8 20 10 9.0649 7.5014
-8 20 11 -6.5798 2.7723
-8 21 1 5.7787 -2.1657
-8 21 2 -6.3133 5.9461
-8 21 3 -3.9699 9.2509
-8 21 4 0.0209 5.7082
-8 21 5 -7.6280 -9.0315
-8 21 6 -0.0755 9.7500
-8 21 7 1.8686 -5.2462
-8 21 8 5.8769 -0.9565
-8 21 9 -3.0841 -8.4416
-8 22 1 -0.7463 -8.0141
-8 22 2 -7.7403 1.3279
-8 22 3 -0.1911 -0.1638
-8 22 4 -6.9799 -4.9987
-8 22 5 -1.2247 4.4192
-7 0 2 8.8711 7.8215
-7 0 4 -3.3395 14.3323
-7 0 6 -9.6224 -6.5174
-7 0 8 -2.2825 2.0649
-7 0 10 -0.3904 1.3461
-7 0 12 -1.1163 0.4114
-7 0 14 -5.7590 -11.6301
-7 0 16 -7.4788 -7.4598
-7 0 18 -2.2513 1.7625
-7 0 20 -2.1231 -5.0861
-7 0 22 -0.5463 6.0687
-7 0 24 2.5571 7.2949
-7 1 1 13.3670 12.4815
-7 1 2 22.3770 4.9453
-7 1 3 -20.6179 13.2815
-7 1 4 14.1776 -3.3301
-7 1 5 19.9995 28.4210
-7 1 6 0.3337 -7.1835
-7 1 7 5.9212 -11.1939
-7 1 8 -3.9993 21.1375
-7 1 9 -16.5836 -13.7216
-7 1 10 -9.3433 4.8538
-7 1 11 9.8893 13.9234
-7 1 12 11.5743 -1.1762
-7 1 13 16.0834 -17.1689
-7 1 14 -3.9176 2.3927
-7 1 15 24.5828 5.4217
-7 1 16 2.5224 6.4652
-7 1 17 -0.1487 -12.9913
-7 1 18 -3.4686 7.1041
-7 1 19 2.1638 7.6529
-7 1 20 1.9486 10.9778
-7 1 21 -6.9061 0.3204
-7 1 22 1.8864 -4.4159
-7 1 23 -7.8128 -3.0217
-7 1 24 -2.6519 -5.5649
-7 2 1 -17.2618 10.9910
-7 2 2 7.2259 2.4579
-7 2 3 -59.2562 -67.3642
-7 2 4 -3.9899 3.8131
-7 2 5 -0.4746 9.3955
-7 2 6 5.3783 3.6867
-7 2 7 0.3107 -1.9873
-7 2 8 5.4959 0.9873
-7 2 9 -8.7415 1.9595
-7 2 10 -2.5180 5.7615
-7 2 11 7.2232 -14.3923
-7 2 12 -1.9828 -4.3261
-7 2 13 13.0819 -5.4252
-7 2 14 -12.1668 3.7612
-7 2 15 1.8435 -2.6218
-7 2 16 3.4303 -6.9660
-7 2 17 18.0358 4.3897
-7 2 18 3.5212 -5.0901
-7 2 19 22.5140 12.2454
-7 2 20 -4.9954 1.5385
-7 2 21 3.1140 2.0506
-7 2 22 -0.1623 -1.0313
-7 2 23 15.1980 3.9717
-7 2 24 1.2129 0.4802
-7 3 1 12.9199 -7.0149
-7 3 2 15.0800 -8.2924
-7 3 3 27.2940 -2.6393
-7 3 4 -4.1519 -7.2662
-7 3 5 -6.4441 -22.5082
-7 3 6 -2.0662 0.0481
-7 3 7 -4.4692 19.3240
-7 3 8 1.7103 -9.3240
-7 3 9 -5.4090 -7.1900
-7 3 10 8.1115 -15.4869
-7 3 11 4.4522 1.0198
-7 3 12 -12.4939 -9.9779
-7 3 13 3.3363 1.0068
-7 3 14 14.0130 -2.1901
-7 3 15 -4.3620 7.1550
-7 3 16 8.9181 -6.7998
-7 3 17 -1.1183 2.3953
-7 3 18 19.9405 6.9576
-7 3 19 2.6700 -5.9941
-7 3 20 0.0841 -10.9564
-7 3 21 1.3072 -6.5985
-7 3 22 6.7114 1.3809
-7 3 23 -2.3376 -2.5327
-7 3 24 3.2075 3.1355
-7 4 1 -3.1118 5.3504
-7 4 2 12.4983 -0.0332
-7 4 3 13.7535 -2.9906
-7 4 4 -0.1105 -0.5348
-7 4 5 21.7735 -26.9604
-7 4 6 -3.7008 -0.4738
-7 4 7 -24.3312 -10.1225
-7 4 8 2.6760 1.0855
-7 4 9 12.1811 -29.8557
-7 4 10 -1.8096 -0.4727
-7 4 11 15.3678 8.5480
-7 4 12 2.0163 -0.2445
-7 4 13 2.0070 0.7403
-7 4 14 6.4380 1.7569
-7 4 15 -5.7484 -13.2138
-7 4 16 -4.7619 -8.4586
-7 4 17 17.0228 -1.0253
-7 4 18 3.4225 2.5904
-7 4 19 7.8339 16.6021
-7 4 20 1.4480 -0.8898
-7 4 21 -4.5435 3.0792
-7 4 22 -1.8980 -0.1887
-7 4 23 -14.6619 3.4467
-7 4 24 -2.2978 -4.8660
-7 5 1 10.7493 -4.6318
-7 5 2 -26.8897 -8.0948
-7 5 3 1.9294 0.4685
-7 5 4 0.8802 7.1431
-7 5 5 10.3639 12.4385
-7 5 6 -1.4990 18.0330
-7 5 7 8.6136 11.8859
-7 5 8 0.6947 1.9187
-7 5 9 -11.2007 9.3537
-7 5 10 -20.2299 8.1205
-7 5 11 7.1154 4.1040
-7 5 12 14.1290 7.7876
-7 5 13 -1.5925 -8.2957
-7 5 14 -3.6059 -8.1839
-7 5 15 7.1658 -11.3945
-7 5 16 26.5559 2.9202
-7 5 17 4.7411 8.3989
-7 5 18 7.5369 5.0571
-7 5 19 9.5093 -3.1414
-7 5 20 0.0036 5.5357
-7 5 21 2.4322 1.4642
-7 5 22 -1.1794 0.5318
-7 5 23 1.7169 5.1123
-7 5 24 -1.3263 5.6054
-7 6 1 -25.3036 -10.3984
-7 6 2 -0.9265 12.5576
-7 6 3 20.7673 -19.8432
-7 6 4 7.1895 6.9681
-7 6 5 11.2253 25.5182
-7 6 6 3.1296 -1.6072
-7 6 7 -8.8783 1.8189
-7 6 8 9.8987 -3.9608
-7 6 9 -6.9825 4.7973
-7 6 10 2.2872 2.5239
-7 6 11 -6.9897 11.6848
-7 6 12 4.9001 -4.9963
-7 6 13 9.1353 12.0168
-7 6 14 -5.2576 -3.8679
-7 6 15 3.0354 12.5090
-7 6 16 -1.3108 -10.9362
-7 6 17 -5.2802 0.5240
-7 6 18 3.6445 -6.5478
-7 6 19 -15.7148 6.7004
-7 6 20 -3.5854 4.7793
-7 6 21 -4.6809 1.2718
-7 6 22 -3.3561 -4.9932
-7 6 23 8.4484 -0.6194
-7 7 1 -6.5817 8.5576
-7 7 2 -8.4086 7.1629
-7 7 3 3.7241 -1.7434
-7 7 4 6.4009 -3.4904
-7 7 5 1.0884 -7.0190
-7 7 6 9.1748 4.6216
-7 7 7 1.8231 -10.4998
-7 7 8 1.4056 13.1258
-7 7 9 5.2333 9.3813
-7 7 10 -4.2077 -0.4107
-7 7 11 2.6048 0.4377
-7 7 12 -6.5283 1.7516
-7 7 13 -0.7315 8.6470
-7 7 14 -6.1347 8.6898
-7 7 15 -9.5953 -3.2289
-7 7 16 -6.8622 -0.9540
-7 7 17 -3.8038 -0.9138
-7 7 18 0.4178 11.6259
-7 7 19 4.2528 4.8015
-7 7 20 0.9292 2.1702
-7 7 21 0.5272 -3.0056
-7 7 22 4.4719 8.4832
-7 7 23 0.3995 -1.6383
-7 8 1 12.0518 7.7985
-7 8 2 -2.1978 -6.0017
-7 8 3 18.3176 37.2360
-7 8 4 3.3542 -4.8313
-7 8 5 -10.4138 -2.3350
-7 8 6 -0.0210 -6.2717
-7 8 7 16.5617 -0.4642
-7 8 8 1.8476 1.2961
-7 8 9 3.7064 12.7593
-7 8 10 5.8019 -5.8771
-7 8 11 5.9426 -4.3867
-7 8 12 6.6753 0.5032
-7 8 13 -0.0096 -2.6757
-7 8 14 -2.1275 0.1554
-7 8 15 -8.0652 14.2106
-7 8 16 -5.8678 -5.0430
-7 8 17 17.7189 10.0536
-7 8 18 7.8176 3.3666
-7 8 19 -5.4338 3.5756
-7 8 20 4.1726 0.3422
-7 8 21 -0.3101 -6.2113
-7 8 22 3.0081 4.9719
-7 8 23 -10.2198 -3.3805
-7 9 1 -13.8107 0.4015
-7 9 2 20.3420 -15.8521
-7 9 3 -4.0804 -1.4756
-7 9 4 12.3224 2.5476
-7 9 5 -0.9552 0.7474
-7 9 6 3.8207 8.4674
-7 9 7 -8.7373 -5.5754
-7 9 8 -7.1324 -2.6869
-7 9 9 7.1975 -4.4290
-7 9 10 -9.6382 -1.9240
-7 9 11 -4.2520 -6.8111
-7 9 12 2.1202 4.9552
-7 9 13 -4.4226 4.6482
-7 9 14 -11.8598 16.7499
-7 9 15 -0.3321 -10.0142
-7 9 16 -5.1548 -5.5153
-7 9 17 -0.9503 -1.8096
-7 9 18 -9.7853 -10.6201
-7 9 19 -7.7517 2.2401
-7 9 20 -0.5552 -12.7014
-7 9 21 2.2808 3.1951
-7 9 22 7.5462 -0.4859
-7 10 1 2.7780 3.2933
-7 10 2 3.3821 -4.3455
-7 10 3 -2.8282 -15.8543
-7 10 4 5.9870 3.0122
-7 10 5 -7.7746 3.8852
-7 10 6 -1.9226 0.4206
-7 10 7 -18.9756 3.4552
-7 10 8 0.3952 -5.2314
-7 10 9 1.1304 5.7148
-7 10 10 -0.8265 -2.7003
-7 10 11 -3.5960 -21.3772
-7 10 12 3.2080 -7.2094
-7 10 13 3.5635 -25.9471
-7 10 14 -7.9680 5.6435
-7 10 15 12.1106 -14.3063
-7 10 16 -8.9367 -4.4299
-7 10 17 -2.1915 14.0533
-7 10 18 0.1810 -2.5356
-7 10 19 -10.7372 -2.6366
-7 10 20 -0.0343 8.1948
-7 10 21 -5.2716 -14.2068
-7 10 22 1.2456 -5.5267
-7 11 1 1.7700 -10.8738
-7 11 2 0.5089 -6.6861
-7 11 3 12.0819 -4.8584
-7 11 4 9.4120 -1.5070
-7 11 5 3.6824 12.5997
-7 11 6 9.5986 3.2143
-7 11 7 -13.6015 -4.0092
-7 11 8 -18.7699 7.6350
-7 11 9 -7.4236 -12.4480
-7 11 10 1.9626 -2.6954
-7 11 11 -1.4742 -4.4456
-7 11 12 3.4764 -4.5755
-7 11 13 -2.4722 -18.5686
-7 11 14 7.6330 4.9872
-7 11 15 -11.2569 -1.9602
-7 11 16 2.0798 -2.2885
-7 11 17 1.2333 6.2421
-7 11 18 2.4112 -8.2597
-7 11 19 -1.5594 1.2167
-7 11 20 11.3513 0.6872
-7 11 21 -2.8925 3.5036
-7 12 1 9.3483 -21.4967
-7 12 2 6.0112 -4.1295
-7 12 3 -0.0005 -8.7159
-7 12 4 -0.1713 2.6391
-7 12 5 0.5346 -2.0580
-7 12 6 -3.7509 6.8606
-7 12 7 3.8916 -5.8529
-7 12 8 -8.4878 5.7214
-7 12 9 -5.0952 -2.1952
-7 12 10 -5.7423 -0.2561
-7 12 11 -18.9230 1.8103
-7 12 12 -10.7052 -6.5387
-7 12 13 -16.2935 -12.3219
-7 12 14 3.8157 -1.0142
-7 12 15 2.5061 -11.4830
-7 12 16 0.2809 -3.8717
-7 12 17 -0.3639 8.6678
-7 12 18 5.3858 2.4297
-7 12 19 5.5964 -5.8725
-7 12 20 1.1534 -3.4585
-7 12 21 9.9510 -3.9217
-7 13 1 -8.0648 3.5706
-7 13 2 12.3991 1.9705
-7 13 3 -1.6701 -1.6291
-7 13 4 5.8142 -0.2488
-7 13 5 5.3367 -3.0123
-7 13 6 3.6012 16.6990
-7 13 7 -5.4048 15.3490
-7 13 8 -3.4718 11.3651
-7 13 9 -9.6085 0.9522
-7 13 10 -15.6532 2.3567
-7 13 11 -8.6617 -5.8246
-7 13 12 -4.5743 -11.4227
-7 13 13 -11.9308 12.0670
-7 13 14 11.9206 0.8549
-7 13 15 -5.6767 4.6464
-7 13 16 -1.9907 -1.7192
-7 13 17 1.1634 -1.9037
-7 13 18 8.1202 -1.6332
-7 13 19 -0.9139 1.9937
-7 13 20 1.1722 6.1192
-7 14 1 1.0645 5.7190
-7 14 2 -4.2299 0.0723
-7 14 3 11.1056 0.1446
-7 14 4 3.2055 -0.7479
-7 14 5 1.6767 -5.7692
-7 14 6 -3.2897 0.1629
-7 14 7 -0.8769 5.7791
-7 14 8 1.1437 -7.0566
-7 14 9 6.7533 7.6769
-7 14 10 -12.0870 2.5928
-7 14 11 3.9515 30.8537
-7 14 12 -2.2220 -9.1245
-7 14 13 -9.6779 2.1191
-7 14 14 -0.3255 1.0842
-7 14 15 8.2202 13.6978
-7 14 16 1.3874 3.2287
-7 14 17 1.1556 -0.7725
-7 14 18 1.4143 -2.7776
-7 14 19 -1.3986 0.6113
-7 15 1 1.1749 5.5617
-7 15 2 17.9926 12.2961
-7 15 3 -10.9289 -3.2764
-7 15 4 0.8654 2.7834
-7 15 5 0.1455 4.2589
-7 15 6 -8.8346 -18.4431
-7 15 7 -0.7741 6.0886
-7 15 8 -2.4413 14.8224
-7 15 9 -11.7269 -7.0823
-7 15 10 -12.3321 -1.6090
-7 15 11 4.7917 4.3151
-7 15 12 11.2516 -5.3262
-7 15 13 -6.1769 9.5310
-7 15 14 -7.8492 -8.2078
-7 15 15 -8.8047 -6.9258
-7 15 16 -6.8850 -4.3962
-7 15 17 -4.7888 -4.6542
-7 15 18 1.2431 2.6806
-7 16 1 -33.6216 1.5363
-7 16 2 -1.8186 -4.6485
-7 16 3 -4.6957 -9.9425
-7 16 4 -6.2279 -4.1988
-7 16 5 -5.1426 6.5655
-7 16 6 -3.2737 3.2807
-7 16 7 17.0685 -10.6064
-7 16 8 -1.7321 -1.5191
-7 16 9 4.9540 -3.6041
-7 16 10 -1.4638 -1.4753
-7 16 11 -16.9260 -1.6439
-7 16 12 2.1072 -0.3522
-7 16 13 -8.8058 5.4673
-7 16 14 7.8332 -5.5387
-7 16 15 0.6691 -6.0788
-7 16 16 3.1306 -1.1324
-7 16 17 4.9603 -1.4737
-7 17 1 -3.2397 -2.0875
-7 17 2 9.8819 9.6655
-7 17 3 -5.7930 -8.3574
-7 17 4 -3.1188 -0.2401
-7 17 5 -2.2626 -4.5150
-7 17 6 -7.1385 -0.4812
-7 17 7 -6.5505 -5.3314
-7 17 8 2.2148 0.0631
-7 17 9 6.0900 -0.3742
-7 17 10 -3.4933 3.1355
-7 17 11 -2.4340 5.3407
-7 17 12 -9.7083 10.6362
-7 17 13 -18.1295 5.3799
-7 17 14 -4.2752 -5.8139
-7 17 15 -13.9303 -5.4043
-7 17 16 4.9524 -4.6504
-7 18 1 -2.3019 -9.3864
-7 18 2 3.5447 4.2136
-7 18 3 -3.3215 -0.1950
-7 18 4 2.5930 -0.0761
-7 18 5 -0.1046 -7.7855
-7 18 6 4.6164 -0.3798
-7 18 7 -6.3567 4.4350
-7 18 8 -0.1387 4.0904
-7 18 9 -2.8504 3.0275
-7 18 10 2.3882 -1.2720
-7 18 11 4.5624 -4.2635
-7 18 12 -4.5389 -6.3245
-7 18 13 -8.5150 -8.3245
-7 18 14 -1.0627 -3.5028
-7 18 15 5.1993 -7.4152
-7 19 1 8.6309 -0.3064
-7 19 2 1.3491 19.3970
-7 19 3 2.2891 -1.5945
-7 19 4 -7.0173 14.3731
-7 19 5 1.2147 -11.6178
-7 19 6 4.9034 -5.1222
-7 19 7 8.1331 -9.3324
-7 19 8 -2.4427 2.9054
-7 19 9 3.2871 -0.5896
-7 19 10 3.6642 5.9708
-7 19 11 -1.6961 1.4946
-7 19 12 -4.9064 3.0264
-7 19 13 0.8683 -0.9510
-7 20 1 -5.7640 -1.1770
-7 20 2 0.1965 -4.8879
-7 20 3 -11.3827 8.0233
-7 20 4 3.5295 5.1959
-7 20 5 7.1562 6.6593
-7 20 6 1.2297 -1.8301
-7 20 7 4.4751 2.4508
-7 20 8 0.4626 -3.5112
-7 20 9 -3.7832 0.5190
-7 20 10 3.5564 -0.7928
-7 20 11 -5.1994 -2.7310
-7 20 12 -1.2542 0.6145
-7 21 1 -8.2598 -2.6357
-7 21 2 5.3152 -3.2361
-7 21 3 -1.8612 -1.3746
-7 21 4 2.5742 4.7511
-7 21 5 3.0899 -3.5199
-7 21 6 4.6186 5.5722
-7 21 7 3.2839 -6.4873
-7 21 8 8.6696 -7.8477
-7 21 9 2.5210 -0.1738
-7 21 10 2.5119 0.2283
-7 22 1 -3.0483 12.3419
-7 22 2 2.8015 0.7078
-7 22 3 3.5752 2.4943
-7 22 4 -1.5605 -2.9459
-7 22 5 -3.3033 0.2588
-7 22 6 0.4089 -2.5727
-7 22 7 3.5987 -4.5410
-6 0 2 -160.0126 77.5064
-6 0 4 -3.5730 -8.4316
-6 0 6 -21.8751 15.9877
-6 0 8 -0.2761 -8.5365
-6 0 10 9.7004 -11.8695
-6 0 12 21.3190 5.0838
-6 0 14 -5.2009 13.6042
-6 0 16 -30.3507 -11.7136
-6 0 18 2.9912 -4.1424
-6 0 20 25.1580 -4.6633
-6 0 22 -3.6048 -3.4530
-6 0 24 -11.0565 10.6738
-6 1 1 -19.6668 12.8091
-6 1 2 1.5522 -27.7575
-6 1 3 -0.3265 5.8461
-6 1 4 6.3829 -5.0431
-6 1 5 15.6410 -10.6364
-6 1 6 -5.5045 -16.2069
-6 1 7 11.1116 0.4980
-6 1 8 -5.9186 -0.1940
-6 1 9 10.4883 -1.5696
-6 1 10 7.1047 -8.4089
-6 1 11 -3.1260 36.7628
-6 1 12 2.9664 -13.9960
-6 1 13 5.9764 5.7979
-6 1 14 10.1268 -2.9348
-6 1 15 7.1406 -2.6280
-6 1 16 -3.1526 12.7521
-6 1 17 7.4296 -11.0304
-6 1 18 -3.2462 5.7992
-6 1 19 -2.1742 3.6398
-6 1 20 -12.8048 -2.1931
-6 1 21 -12.1059 -1.4959
-6 1 22 -9.4940 1.6278
-6 1 23 4.1373 -1.1335
-6 1 24 -2.0428 3.1359
-6 2 1 7.9557 -3.3242
-6 2 2 55.2939 -33.2855
-6 2 3 -4.7900 0.7831
-6 2 4 -55.4655 -34.7047
-6 2 5 -0.7506 0.0530
-6 2 6 11.1542 -25.6338
-6 2 7 -2.8517 2.6792
-6 2 8 6.1589 -8.4817
-6 2 9 -11.6029 -4.9691
-6 2 10 25.3633 11.8543
-6 2 11 8.5229 0.1034
-6 2 12 0.2465 4.5172
-6 2 13 8.0143 -7.1924
-6 2 14 -4.5872 6.4345
-6 2 15 1.8659 0.3213
-6 2 16 17.6273 13.5706
-6 2 17 -8.1349 3.7394
-6 2 18 11.6538 -21.0300
-6 2 19 -2.9150 -6.8593
-6 2 20 -7.8532 -2.9132
-6 2 21 -3.0463 -7.4902
-6 2 22 -0.2567 -2.9948
-6 2 23 -1.7041 -2.2991
-6 2 24 8.4418 -6.1279
-6 3 1 -4.2803 33.5734
-6 3 2 -9.5512 1.9115
-6 3 3 13.7773 11.4543
-6 3 4 -11.8617 -16.5600
-6 3 5 9.8163 7.5368
-6 3 6 5.2145 -9.0847
-6 3 7 -1.0480 8.0099
-6 3 8 4.1889 3.5693
-6 3 9 5.1280 2.7329
-6 3 10 3.6378 -7.8977
-6 3 11 4.9003 -4.1753
-6 3 12 14.1558 -4.7629
-6 3 13 5.6343 -9.6753
-6 3 14 -0.1226 -9.3398
-6 3 15 -0.4583 -4.7166
-6 3 16 10.9156 8.5191
-6 3 17 -4.2468 -14.7843
-6 3 18 -14.8486 7.9372
-6 3 19 -2.0686 -9.6603
-6 3 20 -2.5355 4.8704
-6 3 21 4.8214 5.8956
-6 3 22 -12.7308 5.5875
-6 3 23 -11.3450 1.8359
-6 3 24 -13.0527 -0.1254
-6 4 1 -2.3915 13.5741
-6 4 2 34.0134 -29.5640
-6 4 3 -4.9634 -7.0647
-6 4 4 -8.1669 -0.7656
-6 4 5 1.0619 0.0195
-6 4 6 -27.7499 -63.6094
-6 4 7 -2.7712 6.9110
-6 4 8 26.8774 -3.2925
-6 4 9 -6.0451 -4.4591
-6 4 10 -3.4820 19.6550
-6 4 11 1.2762 -5.2901
-6 4 12 -3.9101 1.0984
-6 4 13 -2.7419 -0.3545
-6 4 14 18.6236 -9.8550
-6 4 15 2.5936 7.8454
-6 4 16 -20.2529 -3.2975
-6 4 17 -3.3768 4.0885
-6 4 18 -3.4478 11.0255
-6 4 19 0.7645 1.3626
-6 4 20 -7.6609 -6.2186
-6 4 21 -2.3404 5.6586
-6 4 22 4.4272 11.3224
-6 4 23 0.4828 0.0940
-6 4 24 -11.6727 -2.4653
-6 5 1 -0.3154 -5.9730
-6 5 2 -6.7734 -7.2299
-6 5 3 16.0457 0.0615
-6 5 4 5.2036 -9.4144
-6 5 5 12.7932 -4.5668
-6 5 6 -6.3180 -16.5709
-6 5 7 -2.2259 -14.6313
-6 5 8 7.7228 -13.2897
-6 5 9 -3.0831 -0.7319
-6 5 10 -2.8841 7.4594
-6 5 11 3.1739 -5.5393
-6 5 12 0.8565 2.8266
-6 5 13 0.8593 4.4336
-6 5 14 3.8227 7.4949
-6 5 15 8.8599 -8.6077
-6 5 16 11.4544 -5.7613
-6 5 17 9.7223 6.3177
-6 5 18 6.6670 -4.2090
-6 5 19 14.2396 1.2647
-6 5 20 0.5867 -1.0907
-6 5 21 3.4516 7.4846
-6 5 22 3.6279 7.3741
-6 5 23 14.9725 5.7296
-6 5 24 0.0055 -6.9822
-6 6 1 1.9727 -3.5536
-6 6 2 6.5634 1.4529
-6 6 3 -3.8397 3.9493
-6 6 4 -4.6343 -5.6602
-6 6 5 1.4632 4.5597
-6 6 6 14.4594 -32.5527
-6 6 7 -10.5753 11.7635
-6 6 8 21.6531 -0.9507
-6 6 9 -13.0065 1.9732
-6 6 10 -0.1179 -18.7982
-6 6 11 -8.7488 -4.8356
-6 6 12 -8.0407 -13.6268
-6 6 13 -4.0102 -0.4415
-6 6 14 1.0978 4.1096
-6 6 15 7.2336 6.3560
-6 6 16 12.9096 -12.1954
-6 6 17 2.4816 4.4150
-6 6 18 7.6655 8.2029
-6 6 19 6.1875 3.7553
-6 6 20 1.4633 4.9015
-6 6 21 -4.2134 -2.8406
-6 6 22 -5.9495 -4.8645
-6 6 23 -8.5060 0.9883
-6 6 24 -9.9346 1.7741
-6 7 1 11.6846 -11.9091
-6 7 2 13.0059 -7.0969
-6 7 3 -1.5266 1.1430
-6 7 4 2.9836 -8.0282
-6 7 5 -18.5001 0.6724
-6 7 6 -5.3806 19.9667
-6 7 7 -2.8283 8.5332
-6 7 8 -1.5551 -10.5345
-6 7 9 -0.9202 -6.0945
-6 7 10 1.9161 -5.5036
-6 7 11 0.8993 4.2168
-6 7 12 13.4526 6.4911
-6 7 13 -5.6047 -2.8925
-6 7 14 -1.5276 10.2807
-6 7 15 -2.8909 -25.4866
-6 7 16 -0.0775 -4.7194
-6 7 17 12.5895 -7.0753
-6 7 18 7.6889 13.6633
-6 7 19 14.8835 -1.4774
-6 7 20 11.2408 4.6640
-6 7 21 9.1311 6.7124
-6 7 22 -5.8559 3.5094
-6 7 23 -8.1675 6.4402
-6 8 1 3.7822 -6.5814
-6 8 2 -17.7108 4.0423
-6 8 3 -0.3218 3.6319
-6 8 4 -4.3812 3.0238
-6 8 5 -1.5248 -2.9322
-6 8 6 2.9387 -0.1444
-6 8 7 5.3588 -1.9388
-6 8 8 18.0957 -5.0958
-6 8 9 -7.1729 4.3925
-6 8 10 -4.5767 8.6472
-6 8 11 -1.0460 8.0651
-6 8 12 -8.7312 -6.1614
-6 8 13 -1.5302 -3.2644
-6 8 14 -9.4429 -15.4398
-6 8 15 2.8164 -2.5066
-6 8 16 12.6396 2.2486
-6 8 17 10.4094 -0.7978
-6 8 18 -2.7539 4.9655
-6 8 19 7.2518 3.2415
-6 8 20 -11.5964 5.3295
-6 8 21 -1.4283 -8.8308
-6 8 22 -7.9590 -5.0257
-6 8 23 -1.7272 -11.1488
-6 9 1 -6.6651 -13.1222
-6 9 2 11.1905 0.9813
-6 9 3 6.0836 2.3097
-6 9 4 11.9812 10.9137
-6 9 5 -8.7368 -1.0617
-6 9 6 -6.9767 1.1756
-6 9 7 10.9491 3.7345
-6 9 8 -9.4399 7.6726
-6 9 9 19.6129 3.2985
-6 9 10 -6.2537 1.1793
-6 9 11 1.9224 2.9484
-6 9 12 -4.1186 7.8432
-6 9 13 -5.5844 -12.1593
-6 9 14 3.7591 5.6532
-6 9 15 -4.4812 1.2154
-6 9 16 6.6289 8.9471
-6 9 17 12.0351 1.4303
-6 9 18 1.5790 11.1239
-6 9 19 0.6637 11.3783
-6 9 20 -2.5100 2.8761
-6 9 21 -9.4689 7.2250
-6 9 22 1.0547 0.4148
-6 9 23 3.5946 -5.6077
-6 10 1 1.1709 -2.8203
-6 10 2 -8.9611 24.9536
-6 10 3 -11.7058 -0.0616
-6 10 4 -6.0374 -0.3290
-6 10 5 -5.3570 -12.6166
-6 10 6 -6.6652 -0.0231
-6 10 7 0.6235 0.1115
-6 10 8 3.6466 -9.6605
-6 10 9 -5.3843 4.6775
-6 10 10 -4.7702 4.3598
-6 10 11 -5.6489 -1.2584
-6 10 12 -1.5058 -4.5626
-6 10 13 -4.0335 6.1858
-6 10 14 15.3548 0.8505
-6 10 15 -3.8760 3.2113
-6 10 16 11.1076 9.9947
-6 10 17 -9.2521 -4.2333
-6 10 18 10.3862 2.2575
-6 10 19 0.2792 -4.4510
-6 10 20 2.4624 4.5502
-6 10 21 -0.7008 -2.7377
-6 10 22 -0.8124 4.1107
-6 11 1 1.9717 -12.4393
-6 11 2 -16.4266 8.1137
-6 11 3 -6.2121 -3.6643
-6 11 4 -18.0122 8.1556
-6 11 5 0.5054 -8.7798
-6 11 6 3.3665 6.5777
-6 11 7 12.5419 -13.4136
-6 11 8 -9.3137 5.5596
-6 11 9 1.1722 -6.5656
-6 11 10 -0.4141 6.0566
-6 11 11 15.8462 -6.8323
-6 11 12 7.5292 -1.4218
-6 11 13 13.4203 7.7381
-6 11 14 -5.6862 8.8185
-6 11 15 -2.5320 11.9053
-6 11 16 -0.2502 7.4073
-6 11 17 -8.0014 7.2737
-6 11 18 -17.7905 2.1514
-6 11 19 -2.4694 13.9800
-6 11 20 -4.1932 -1.4222
-6 11 21 -9.1195 -9.0097
-6 11 22 0.5699 -1.9028
-6 12 1 -1.7031 -0.7385
-6 12 2 8.1940 -4.1705
-6 12 3 0.1557 -2.3528
-6 12 4 1.3719 -17.9098
-6 12 5 -4.3446 -4.6954
-6 12 6 12.8770 -7.4530
-6 12 7 0.9218 0.3948
-6 12 8 -13.2485 13.7454
-6 12 9 -6.8417 7.7071
-6 12 10 -12.3812 4.5653
-6 12 11 0.2975 0.7638
-6 12 12 4.7102 -15.9107
-6 12 13 4.4562 6.0271
-6 12 14 28.2594 -12.5252
-6 12 15 1.8464 0.0343
-6 12 16 6.7971 -0.0387
-6 12 17 2.5897 2.6781
-6 12 18 -7.4207 -8.1148
-6 12 19 -7.7367 2.6014
-6 12 20 7.3827 0.1576
-6 12 21 0.3193 5.0217
-6 13 1 1.8627 3.4350
-6 13 2 -20.3941 -3.6047
-6 13 3 -18.2559 -17.1392
-6 13 4 -2.4852 -8.3390
-6 13 5 -3.1527 -12.1642
-6 13 6 14.9384 4.2167
-6 13 7 16.3761 9.1483
-6 13 8 10.5602 18.4979
-6 13 9 5.3170 20.7530
-6 13 10 -0.9344 -9.4208
-6 13 11 16.8888 -26.4502
-6 13 12 0.6139 16.1156
-6 13 13 4.3102 3.4417
-6 13 14 -8.9214 -0.0717
-6 13 15 7.0311 2.5217
-6 13 16 -2.3835 -8.2678
-6 13 17 9.4129 7.2617
-6 13 18 8.6127 -0.0919
-6 13 19 -3.0467 -1.1468
-6 13 20 -2.6250 -5.9696
-6 14 1 -5.1882 2.0633
-6 14 2 -12.9536 -7.4489
-6 14 3 -1.8792 5.4472
-6 14 4 4.8007 5.3829
-6 14 5 -0.5296 0.9847
-6 14 6 -0.9537 -6.0273
-6 14 7 4.8846 -0.5567
-6 14 8 3.7019 4.4881
-6 14 9 -0.2544 -1.3077
-6 14 10 0.1321 6.2003
-6 14 11 -1.7647 1.3835
-6 14 12 11.1422 6.1111
-6 14 13 -9.8934 -0.3020
-6 14 14 -0.2998 -2.6078
-6 14 15 -4.6866 -4.0632
-6 14 16 7.7545 -0.4565
-6 14 17 3.6385 1.1199
-6 14 18 -6.1035 7.4436
-6 14 19 1.7186 5.0007
-6 15 1 -11.1234 15.8162
-6 15 2 3.6670 -1.9950
-6 15 3 -3.4601 3.0836
-6 15 4 3.9367 7.5938
-6 15 5 -4.6744 20.7763
-6 15 6 -1.5639 5.2578
-6 15 7 -0.2075 17.9419
-6 15 8 -3.7733 3.6038
-6 15 9 -15.5567 -1.3259
-6 15 10 -4.5232 1.8790
-6 15 11 -3.3374 0.4076
-6 15 12 3.0533 3.6245
-6 15 13 10.2202 -1.8989
-6 15 14 -2.6772 4.7806
-6 15 15 0.6737 -1.9485
-6 15 16 1.2138 8.1330
-6 15 17 3.1961 2.8483
-6 15 18 -3.2432 0.3513
-6 15 19 1.6741 3.4224
-6 16 1 -5.0428 3.0219
-6 16 2 4.1048 4.7538
-6 16 3 -4.1503 -2.3474
-6 16 4 8.0314 -11.8965
-6 16 5 -1.2057 -9.0351
-6 16 6 20.9559 -4.1418
-6 16 7 5.7055 -2.8836
-6 16 8 15.7730 1.2956
-6 16 9 9.6594 -6.7098
-6 16 10 18.9807 -1.3648
-6 16 11 5.2174 3.9398
-6 16 12 3.1870 14.7975
-6 16 13 -7.1660 1.2826
-6 16 14 -4.9926 2.4879
-6 16 15 -1.0904 3.1460
-6 16 16 -5.6262 -5.0769
-6 16 17 1.7669 3.9027
-6 16 18 -2.7677 -3.8021
-6 17 1 7.6273 5.5981
-6 17 2 -7.5820 -2.8011
-6 17 3 4.4353 14.7122
-6 17 4 -15.2398 5.3657
-6 17 5 2.3959 -10.1322
-6 17 6 -18.8704 3.2868
-6 17 7 -13.3885 -7.5071
-6 17 8 -0.1478 3.4782
-6 17 9 2.5086 -2.1328
-6 17 10 -1.3941 -5.5784
-6 17 11 -1.5878 -3.0561
-6 17 12 2.1959 -4.4082
-6 17 13 8.7382 -0.3209
-6 17 14 1.9264 7.9778
-6 17 15 9.2826 12.7708
-6 17 16 -2.6426 10.1366
-6 17 17 5.7030 -4.0557
-6 18 1 2.6220 -1.3122
-6 18 2 4.0893 -0.7304
-6 18 3 7.8346 -1.7364
-6 18 4 -0.4721 -1.9574
-6 18 5 2.6711 1.1343
-6 18 6 -5.5018 -7.6860
-6 18 7 5.5289 -4.6323
-6 18 8 6.3948 -5.5624
-6 18 9 10.0429 3.9605
-6 18 10 9.0034 -3.2899
-6 18 11 -2.5220 6.9468
-6 18 12 7.8695 7.5362
-6 18 13 2.8082 -0.6142
-6 18 14 -7.7027 0.9832
-6 18 15 1.0133 -3.2225
-6 19 1 -9.6285 10.7979
-6 19 2 0.2648 4.9184
-6 19 3 1.1767 -1.0220
-6 19 4 -0.7919 -4.6640
-6 19 5 0.3669 -6.1873
-6 19 6 3.0093 -6.6092
-6 19 7 -1.2200 -6.0883
-6 19 8 -11.1330 -5.0064
-6 19 9 -8.8006 -0.7854
-6 19 10 -5.7791 2.3383
-6 19 11 -10.1117 6.2036
-6 19 12 4.1208 -1.6229
-6 19 13 1.1571 4.1980
-6 19 14 7.3818 2.5488
-6 20 1 -5.7108 6.8704
-6 20 2 -1.2098 -5.3343
-6 20 3 -2.0974 2.3756
-6 20 4 -9.4248 -1.1796
-6 20 5 3.1314 6.1806
-6 20 6 6.2136 -6.8861
-6 20 7 6.3421 -1.4768
-6 20 8 2.0345 4.3033
-6 20 9 7.2275 2.6631
-6 20 10 -3.5221 6.4574
-6 20 11 2.5817 0.2338
-6 20 12 6.2725 -2.8573
-6 21 1 5.5535 5.0246
-6 21 2 -0.5181 6.6773
-6 21 3 -24.2834 13.9771
-6 21 4 -2.3452 1.9356
-6 21 5 -2.8262 2.4054
-6 21 6 -6.1905 -2.8992
-6 21 7 4.2657 8.0975
-6 21 8 -0.9800 -0.0553
-6 21 9 -4.6187 9.3059
-6 21 10 0.3138 -1.9082
-6 22 1 2.3865 5.4948
-6 22 2 -3.8556 -15.7757
-6 22 3 0.2414 1.7634
-6 22 4 -0.4224 -10.4950
-6 22 5 0.8018 1.4412
-6 22 6 8.0359 -1.7936
-6 22 7 -2.5595 -3.3817
-6 22 8 7.2511 -2.2465
-6 23 1 4.6421 1.1549
-6 23 2 0.2234 -6.2861
-6 23 3 6.5315 0.5972
-5 0 2 6.0974 -8.9667
-5 0 4 -10.2025 4.9477
-5 0 6 5.0291 -5.3231
-5 0 8 -0.4292 13.8231
-5 0 10 4.7049 -14.1527
-5 0 12 -9.8062 0.9814
-5 0 14 -4.4449 5.0694
-5 0 16 -3.6899 4.2837
-5 0 18 -0.0728 -8.7923
-5 0 20 8.2842 -5.6007
-5 0 22 1.1129 -1.4276
-5 0 24 -4.7189 18.3330
-5 1 1 33.5212 35.7106
-5 1 2 45.8935 -33.3810
-5 1 3 -31.4383 -22.7716
-5 1 4 4.1661 1.8398
-5 1 5 -21.6914 15.2072
-5 1 6 -13.2252 -4.4639
-5 1 7 -9.0271 7.8733
-5 1 8 -12.4786 -24.5692
-5 1 9 -3.8582 -4.6231
-5 1 10 0.5645 4.4306
-5 1 11 -2.4481 -6.7552
-5 1 12 -9.8355 -33.2344
-5 1 13 0.2699 -4.4830
-5 1 14 0.4038 -15.8576
-5 1 15 -15.0908 25.2258
-5 1 16 -16.9193 -14.2534
-5 1 17 1.8147 4.4521
-5 1 18 -7.7708 -9.2613
-5 1 19 2.5612 3.9395
-5 1 20 -10.2969 7.6406
-5 1 21 2.7660 -4.8178
-5 1 22 -8.4534 -1.5615
-5 1 23 -2.8419 -5.5793
-5 1 24 3.9723 -13.4728
-5 1 25 13.5244 0.2315
-5 2 1 -19.4573 -42.7487
-5 2 2 1.3233 -5.3662
-5 2 3 20.3919 -1.8148
-5 2 4 -1.5846 -1.8948
-5 2 5 -65.7142 -3.4391
-5 2 6 -8.7072 -10.1908
-5 2 7 1.9324 3.9073
-5 2 8 -9.6643 -0.1835
-5 2 9 -23.9460 27.3502
-5 2 10 -8.1372 0.7147
-5 2 11 -22.2685 9.0977
-5 2 12 4.7920 7.0228
-5 2 13 -4.7706 -6.5316
-5 2 14 -1.3104 -7.0048
-5 2 15 -12.9892 8.2282
-5 2 16 -2.8500 4.8431
-5 2 17 -10.2868 -1.2842
-5 2 18 2.2882 -0.7706
-5 2 19 -13.1547 11.7063
-5 2 20 1.1281 0.9085
-5 2 21 4.8528 -6.1116
-5 2 22 7.4608 -3.1421
-5 2 23 -2.4417 4.6560
-5 2 24 6.5564 3.5187
-5 2 25 7.7436 2.8999
-5 3 1 3.2822 19.2609
-5 3 2 31.7016 -4.8552
-5 3 3 3.3104 8.9978
-5 3 4 1.1334 19.9898
-5 3 5 18.0164 1.0295
-5 3 6 -25.1609 -0.8400
-5 3 7 -28.4657 -11.5036
-5 3 8 28.3703 4.7878
-5 3 9 -1.9669 -9.8375
-5 3 10 -9.1828 3.6401
-5 3 11 -19.8314 8.2981
-5 3 12 -2.9782 -16.1037
-5 3 13 -7.2263 1.2481
-5 3 14 -4.4895 -6.6408
-5 3 15 -8.1117 -19.6332
-5 3 16 9.9046 -13.6732
-5 3 17 -14.9161 2.6008
-5 3 18 16.2640 5.2602
-5 3 19 -9.0588 -0.3198
-5 3 20 3.0876 -4.8346
-5 3 21 -0.5535 -1.0758
-5 3 22 -7.3160 -12.3004
-5 3 23 -8.2815 -10.0612
-5 3 24 2.4917 -6.2243
-5 3 25 4.6930 -12.5995
-5 4 1 22.7353 50.3991
-5 4 2 0.0146 6.4506
-5 4 3 39.5950 -19.3028
-5 4 4 3.2581 -4.0335
-5 4 5 17.1260 -8.5686
-5 4 6 2.7808 -1.6580
-5 4 7 -2.9241 -24.5824
-5 4 8 10.4958 4.9159
-5 4 9 -4.6586 -11.2311
-5 4 10 -0.4255 2.9620
-5 4 11 -9.9784 4.7199
-5 4 12 0.7113 1.4716
-5 4 13 5.3176 -3.7688
-5 4 14 -4.3919 13.6823
-5 4 15 1.8984 -5.6830
-5 4 16 -4.6413 -4.6006
-5 4 17 9.6729 11.2745
-5 4 18 3.5459 -2.9112
-5 4 19 13.2156 9.4828
-5 4 20 -6.3818 -0.2255
-5 4 21 -7.4313 1.6375
-5 4 22 -0.5724 -6.2794
-5 4 23 -4.2968 -7.7257
-5 4 24 10.8984 -4.3591
-5 5 1 6.1622 -13.8587
-5 5 2 7.2612 -10.7988
-5 5 3 11.6093 -1.2570
-5 5 4 -6.9782 15.9392
-5 5 5 -0.4557 18.9628
-5 5 6 -9.6236 -3.1402
-5 5 7 -17.6766 -0.6047
-5 5 8 4.7565 9.3176
-5 5 9 4.7666 1.6017
-5 5 10 4.2446 12.0336
-5 5 11 6.1806 3.3704
-5 5 12 -13.5300 25.9152
-5 5 13 8.8283 0.6933
-5 5 14 -4.2846 1.6406
-5 5 15 -17.5512 4.4847
-5 5 16 6.3060 8.8865
-5 5 17 -5.6952 -2.5603
-5 5 18 -0.8358 -3.2281
-5 5 19 -9.5235 -3.8209
-5 5 20 -3.4787 -1.2416
-5 5 21 -1.8254 -9.8206
-5 5 22 -3.1475 -12.2835
-5 5 23 -7.4347 -0.8041
-5 5 24 5.2857 -9.7859
-5 6 1 20.0983 -18.7182
-5 6 2 14.1762 -1.0533
-5 6 3 18.9961 16.6508
-5 6 4 -9.2445 13.1942
-5 6 5 14.9388 12.6764
-5 6 6 -10.5266 0.1369
-5 6 7 -25.5946 -26.8023
-5 6 8 -1.4184 6.5185
-5 6 9 2.7447 -22.7548
-5 6 10 -7.1273 4.4855
-5 6 11 -1.8579 -13.9498
-5 6 12 -2.9718 0.5624
-5 6 13 -8.5755 5.8570
-5 6 14 3.1254 0.6038
-5 6 15 1.3905 -13.0152
-5 6 16 -5.9916 -1.5914
-5 6 17 11.0973 -15.7433
-5 6 18 1.8955 -2.3710
-5 6 19 2.6976 0.7987
-5 6 20 -3.0297 -4.3553
-5 6 21 -12.2016 10.7451
-5 6 22 3.8791 1.3740
-5 6 23 -1.9329 13.8655
-5 6 24 -10.2491 2.7667
-5 7 1 8.5620 5.1423
-5 7 2 -11.6925 -14.2626
-5 7 3 -0.8705 2.8917
-5 7 4 8.5177 -1.9474
-5 7 5 -0.9058 3.6365
-5 7 6 28.0271 -1.0530
-5 7 7 4.7454 -4.5395
-5 7 8 16.4262 0.6250
-5 7 9 -7.9342 -1.0509
-5 7 10 5.0109 15.6553
-5 7 11 2.1356 7.4366
-5 7 12 4.3486 5.5201
-5 7 13 -2.8698 8.2630
-5 7 14 -5.3767 16.1521
-5 7 15 -2.4435 4.6776
-5 7 16 -8.7122 -9.9012
-5 7 17 -1.7609 -6.4392
-5 7 18 1.2809 2.2112
-5 7 19 -6.6739 7.3648
-5 7 20 -12.8716 -0.1304
-5 7 21 -7.3968 -4.7683
-5 7 22 -8.4480 -8.5322
-5 7 23 3.1401 5.0775
-5 7 24 4.1663 -1.9786
-5 8 1 0.9808 16.1858
-5 8 2 -4.7601 9.3563
-5 8 3 -20.0498 0.4006
-5 8 4 -4.1048 8.8278
-5 8 5 2.5575 -19.5724
-5 8 6 -3.6382 5.4914
-5 8 7 8.5210 5.2195
-5 8 8 -9.0945 1.4703
-5 8 9 4.9033 7.1440
-5 8 10 -0.7593 3.7788
-5 8 11 0.0455 2.3644
-5 8 12 2.0566 -3.9228
-5 8 13 4.5120 -13.6279
-5 8 14 -2.6746 7.2736
-5 8 15 -0.4103 -13.2244
-5 8 16 -5.0366 5.0290
-5 8 17 6.9865 10.8968
-5 8 18 -2.7965 4.5280
-5 8 19 13.4296 2.1728
-5 8 20 2.5973 3.2736
-5 8 21 2.7007 -2.4326
-5 8 22 -3.8743 -2.6248
-5 8 23 -0.4011 -15.6140
-5 9 1 -7.9593 -1.0484
-5 9 2 2.8222 -4.3572
-5 9 3 10.3392 -5.7037
-5 9 4 1.4666 -3.8704
-5 9 5 6.5964 2.0325
-5 9 6 -0.1420 -7.0575
-5 9 7 12.8795 9.6953
-5 9 8 9.5845 13.8689
-5 9 9 -0.2468 16.7736
-5 9 10 -0.5402 -8.7082
-5 9 11 -13.5875 -6.1869
-5 9 12 2.3768 3.9367
-5 9 13 -5.5265 10.2275
-5 9 14 7.0369 9.4504
-5 9 15 -2.6912 19.3240
-5 9 16 -6.5047 6.8605
-5 9 17 -7.0821 11.9922
-5 9 18 4.2458 -10.2101
-5 9 19 2.5240 2.0923
-5 9 20 6.6617 -3.2446
-5 9 21 6.1562 3.3383
-5 9 22 1.6871 3.1509
-5 9 23 -1.6731 2.6332
-5 10 1 -6.6050 -37.5226
-5 10 2 3.4763 0.1117
-5 10 3 4.9145 -15.2872
-5 10 4 0.1122 6.7170
-5 10 5 13.3152 2.0660
-5 10 6 2.8507 2.9850
-5 10 7 14.8089 16.7809
-5 10 8 6.4236 -2.2249
-5 10 9 6.0614 11.6564
-5 10 10 4.5280 -3.0773
-5 10 11 16.8986 -3.6554
-5 10 12 8.0667 2.2561
-5 10 13 10.3522 3.3307
-5 10 14 -0.4192 -4.8399
-5 10 15 -1.8551 3.0158
-5 10 16 -5.1209 -0.0699
-5 10 17 -5.8244 -2.4447
-5 10 18 -2.7265 3.5916
-5 10 19 -7.3322 3.5860
-5 10 20 1.0885 -2.0791
-5 10 21 -0.8948 -0.5708
-5 10 22 3.6669 -6.5936
-5 11 1 12.8598 10.6544
-5 11 2 -15.6423 -0.3729
-5 11 3 12.9647 8.6889
-5 11 4 4.6013 -3.6660
-5 11 5 11.4744 5.8293
-5 11 6 14.8203 24.0410
-5 11 7 -4.8525 -0.0650
-5 11 8 -1.1915 12.8916
-5 11 9 -8.1037 3.0772
-5 11 10 -7.6477 -2.0095
-5 11 11 -4.7026 10.0214
-5 11 12 6.1222 1.1567
-5 11 13 1.1709 4.1351
-5 11 14 -7.4756 0.8943
-5 11 15 -12.2531 -5.9766
-5 11 16 -8.6639 16.9736
-5 11 17 -8.9701 -10.0552
-5 11 18 -12.1027 -10.5137
-5 11 19 2.4463 -0.4151
-5 11 20 2.0159 2.3559
-5 11 21 -0.6714 0.7816
-5 11 22 1.2996 -0.3287
-5 12 1 12.2867 10.7081
-5 12 2 3.1209 4.5564
-5 12 3 23.8885 -0.2694
-5 12 4 -2.8811 -1.0460
-5 12 5 5.2279 -7.0306
-5 12 6 -1.1489 3.7642
-5 12 7 15.6700 4.7303
-5 12 8 -10.3563 -5.1143
-5 12 9 6.6182 -18.3379
-5 12 10 4.5139 2.6640
-5 12 11 29.6647 -28.3095
-5 12 12 -6.2375 4.1968
-5 12 13 9.1855 -0.1075
-5 12 14 -1.5194 5.5913
-5 12 15 2.9618 2.7679
-5 12 16 4.0418 -3.8167
-5 12 17 -3.8924 13.3584
-5 12 18 -2.6133 -5.4713
-5 12 19 2.3900 -3.5743
-5 12 20 -2.8435 4.0560
-5 12 21 1.1733 -0.0361
-5 13 1 -14.7520 -16.0788
-5 13 2 8.7646 11.8410
-5 13 3 -4.1506 -4.5384
-5 13 4 -3.0927 0.2403
-5 13 5 -11.9082 13.4928
-5 13 6 -4.2241 -4.1411
-5 13 7 -4.8784 -5.7890
-5 13 8 3.5269 2.5424
-5 13 9 -7.3601 -10.4467
-5 13 10 0.1747 6.0381
-5 13 11 7.3780 -1.6136
-5 13 12 1.9854 -12.7848
-5 13 13 -13.6810 0.7526
-5 13 14 -0.6840 -4.8486
-5 13 15 -8.4801 4.0774
-5 13 16 -3.4157 -9.0968
-5 13 17 3.9690 -5.1925
-5 13 18 -0.4580 3.3112
-5 13 19 7.0292 -5.9105
-5 13 20 0.8157 1.2067
-5 13 21 2.0405 2.9031
-5 14 1 -9.4216 9.3020
-5 14 2 -7.2738 3.5613
-5 14 3 -9.8564 1.4497
-5 14 4 -2.5558 0.7706
-5 14 5 -0.4501 -8.6205
-5 14 6 3.4945 5.3163
-5 14 7 3.1459 -16.0365
-5 14 8 0.7494 -5.2154
-5 14 9 -1.0994 -10.0454
-5 14 10 2.4261 -4.9618
-5 14 11 -14.8133 8.4874
-5 14 12 -5.0896 -0.8608
-5 14 13 9.3149 2.8687
-5 14 14 -1.4556 -5.2426
-5 14 15 -6.5559 3.1963
-5 14 16 -4.1928 2.2133
-5 14 17 8.1383 -12.6364
-5 14 18 9.2244 -3.0619
-5 14 19 -2.2051 -6.6731
-5 14 20 -3.8113 3.2230
-5 15 1 -2.6153 -5.1749
-5 15 2 10.1760 22.1141
-5 15 3 9.2223 2.5427
-5 15 4 -6.9357 6.1625
-5 15 5 -10.3584 -2.6056
-5 15 6 3.4789 0.7607
-5 15 7 -11.5026 -3.7907
-5 15 8 1.8701 10.8718
-5 15 9 20.5036 -11.9218
-5 15 10 9.9900 27.7377
-5 15 11 4.5996 0.9132
-5 15 12 -13.2676 5.4066
-5 15 13 0.1842 4.6447
-5 15 14 12.4836 -11.4372
-5 15 15 4.6474 8.3745
-5 15 16 2.3589 -20.5103
-5 15 17 -6.6338 -0.3360
-5 15 18 4.8334 -3.8085
-5 15 19 5.3692 -1.0585
-5 16 1 13.5343 -10.8205
-5 16 2 2.5759 8.5718
-5 16 3 9.7302 2.2060
-5 16 4 -1.9357 3.6674
-5 16 5 -5.8538 -1.9600
-5 16 6 -1.2173 3.1134
-5 16 7 -6.6682 4.2930
-5 16 8 0.2398 0.9349
-5 16 9 -5.7449 8.5431
-5 16 10 -0.2698 -4.7483
-5 16 11 2.9010 -8.6653
-5 16 12 -5.1571 -3.1812
-5 16 13 -11.0213 1.3809
-5 16 14 6.4412 -0.3016
-5 16 15 -0.3644 0.8244
-5 16 16 -1.0940 2.3298
-5 16 17 7.4500 -5.7993
-5 16 18 -6.2323 -4.1217
-5 17 1 2.2249 -9.8940
-5 17 2 10.8203 11.4074
-5 17 3 -4.8335 -13.1484
-5 17 4 -7.2395 3.1854
-5 17 5 2.9435 -3.3149
-5 17 6 -18.5433 5.2799
-5 17 7 -5.5283 -2.1067
-5 17 8 -6.3038 4.5714
-5 17 9 -0.9436 -0.2771
-5 17 10 -2.3583 13.1470
-5 17 11 -1.7432 3.9355
-5 17 12 -0.9900 6.9345
-5 17 13 4.1445 -9.3221
-5 17 14 -3.8460 1.0782
-5 17 15 2.0506 2.3277
-5 17 16 -0.4145 0.8331
-5 17 17 5.2829 7.2870
-5 18 1 7.1843 7.0972
-5 18 2 -5.0719 -0.7712
-5 18 3 -6.9989 5.5568
-5 18 4 0.8715 4.7537
-5 18 5 6.2031 -4.3376
-5 18 6 -1.0252 -2.0132
-5 18 7 -2.8021 -0.6344
-5 18 8 0.2706 0.5985
-5 18 9 -7.6038 -1.4343
-5 18 10 -0.1047 -3.7823
-5 18 11 -6.6632 -1.9575
-5 18 12 7.7943 -11.4926
-5 18 13 6.9977 -2.5491
-5 18 14 -3.4328 1.4547
-5 18 15 10.7488 -3.5799
-5 18 16 -8.3772 2.5360
-5 19 1 2.7343 -7.6611
-5 19 2 -9.8539 4.7637
-5 19 3 7.7364 -8.9925
-5 19 4 10.7353 -6.3201
-5 19 5 2.3308 -7.3814
-5 19 6 18.0423 0.3650
-5 19 7 -6.8848 11.2917
-5 19 8 -7.1496 -10.2127
-5 19 9 -0.8378 -4.5660
-5 19 10 3.7489 -13.4254
-5 19 11 2.6685 -0.9139
-5 19 12 5.4736 6.8200
-5 19 13 -0.2034 4.0867
-5 19 14 1.8402 2.5191
-5 20 1 -5.2372 17.9162
-5 20 2 2.4460 -4.4805
-5 20 3 -22.1961 2.3031
-5 20 4 -0.9319 2.6921
-5 20 5 -6.1147 1.7189
-5 20 6 -4.2796 4.3049
-5 20 7 -11.7650 -5.6474
-5 20 8 1.1834 -0.1500
-5 20 9 -3.0500 0.6388
-5 20 10 1.5825 -1.3809
-5 20 11 -9.3377 0.4031
-5 20 12 -1.6716 3.6232
-5 20 13 0.2813 -4.3980
-5 21 1 14.8638 -11.1566
-5 21 2 9.8940 -6.6407
-5 21 3 1.7536 5.1551
-5 21 4 13.3361 -5.0938
-5 21 5 3.8966 2.2747
-5 21 6 -2.4857 3.2011
-5 21 7 5.0911 -10.6045
-5 21 8 -3.3589 1.3809
-5 21 9 -2.6471 -3.2323
-5 21 10 -4.3129 -0.6964
-5 21 11 -0.6395 1.3014
-5 22 1 5.3446 0.9993
-5 22 2 -10.3336 1.6263
-5 22 3 -3.6457 5.6263
-5 22 4 -2.9223 -2.4811
-5 22 5 -13.3565 3.7151
-5 22 6 -3.0829 1.5646
-5 22 7 0.4012 -0.5402
-5 22 8 -2.8807 -4.7903
-5 23 1 0.7124 5.3744
-5 23 2 4.7961 -11.9126
-5 23 3 7.5839 -4.2421
-5 23 4 -0.7205 6.5853
-5 23 5 2.7286 -4.2778
-4 0 2 -103.9613 -242.6775
-4 0 4 -22.3295 33.9841
-4 0 6 -49.6739 -19.9400
-4 0 8 -8.9883 12.6950
-4 0 10 8.1997 -53.4391
-4 0 12 65.4239 -20.0474
-4 0 14 20.0427 28.8751
-4 0 16 1.4555 20.5072
-4 0 18 -5.4298 -8.4605
-4 0 20 16.0375 9.1841
-4 0 22 -12.1253 12.8700
-4 0 24 -13.5358 -6.0719
-4 1 1 -11.2986 -24.9361
-4 1 2 -38.0734 -8.1590
-4 1 3 33.5269 1.0210
-4 1 4 2.2934 -10.7576
-4 1 5 13.2485 -5.7388
-4 1 6 -34.6744 18.4898
-4 1 7 9.5342 2.1973
-4 1 8 -33.1182 -10.5595
-4 1 9 -7.2616 -5.1268
-4 1 10 -16.5258 26.3917
-4 1 11 -12.9639 -4.6646
-4 1 12 -9.0001 -5.1816
-4 1 13 2.9348 1.9419
-4 1 14 7.9538 6.4060
-4 1 15 11.0300 -11.3933
-4 1 16 0.1689 0.2860
-4 1 17 0.8109 15.4673
-4 1 18 5.3973 9.8596
-4 1 19 -24.0143 -10.6998
-4 1 20 -5.5854 -8.4421
-4 1 21 -8.7085 -13.8085
-4 1 22 -1.5673 0.5341
-4 1 23 -12.6911 7.7640
-4 1 24 -2.2724 2.2831
-4 1 25 -13.1597 2.7272
-4 2 1 17.1092 7.2210
-4 2 2 5.6974 21.7095
-4 2 3 10.4265 -14.0133
-4 2 4 11.3589 -43.4955
-4 2 5 13.4428 -1.1917
-4 2 6 -35.8653 32.7791
-4 2 7 3.5158 0.1620
-4 2 8 -43.6579 -19.1588
-4 2 9 3.9823 -14.2968
-4 2 10 2.9157 -9.4344
-4 2 11 3.5925 -4.0273
-4 2 12 17.1712 -8.8063
-4 2 13 5.7795 12.9258
-4 2 14 11.0720 -3.3250
-4 2 15 -5.2749 -0.8688
-4 2 16 -11.3303 10.2738
-4 2 17 -2.4979 0.3698
-4 2 18 0.4351 -6.1018
-4 2 19 -3.5982 2.2197
-4 2 20 -4.0776 -2.6482
-4 2 21 6.8279 -7.1564
-4 2 22 -1.1303 1.3186
-4 2 23 -7.3173 3.0963
-4 2 24 1.8637 12.5595
-4 2 25 -6.5021 -6.7020
-4 3 1 13.8190 -17.3358
-4 3 2 26.9259 -2.1203
-4 3 3 19.9195 -8.2358
-4 3 4 -24.1228 -2.1022
-4 3 5 -15.3155 17.2865
-4 3 6 -17.4288 9.7278
-4 3 7 -9.2038 -24.3697
-4 3 8 -22.4829 7.1993
-4 3 9 -10.3390 -12.7001
-4 3 10 -8.3477 9.9130
-4 3 11 29.0958 -2.1481
-4 3 12 -28.5174 -7.0657
-4 3 13 6.0373 -5.5903
-4 3 14 -7.1527 -23.3811
-4 3 15 15.0212 -14.4620
-4 3 16 -0.7669 5.2634
-4 3 17 15.3182 -16.5360
-4 3 18 -3.2901 -4.0624
-4 3 19 -4.7139 -11.6582
-4 3 20 -5.5801 3.6710
-4 3 21 -9.3453 -0.3398
-4 3 22 1.0965 -3.4741
-4 3 23 -0.3349 -17.4310
-4 3 24 -2.4899 0.9965
-4 3 25 3.7668 -10.6106
-4 4 1 -5.4480 -4.8476
-4 4 2 23.1784 49.5633
-4 4 3 2.6839 10.8900
-4 4 4 -28.2762 31.9043
-4 4 5 5.0759 -5.0511
-4 4 6 -47.7438 5.1079
-4 4 7 1.7914 0.9024
-4 4 8 -28.7859 -17.1541
-4 4 9 -1.4715 -0.7648
-4 4 10 -24.1783 -9.2843
-4 4 11 7.5395 -1.0604
-4 4 12 -25.6023 2.8913
-4 4 13 7.0344 -7.4229
-4 4 14 -24.9289 -14.6892
-4 4 15 -2.0521 -2.4770
-4 4 16 0.1110 -30.3703
-4 4 17 -0.9927 3.8822
-4 4 18 -7.6661 -8.5914
-4 4 19 -9.5567 -2.0309
-4 4 20 3.1358 -15.0564
-4 4 21 -7.9398 0.6348
-4 4 22 0.3246 -9.7814
-4 4 23 -5.0144 4.6365
-4 4 24 8.0079 0.3950
-4 4 25 4.4120 2.6881
-4 5 1 -10.0863 8.6860
-4 5 2 -7.9777 -0.4589
-4 5 3 10.1648 20.2898
-4 5 4 12.5333 -8.4999
-4 5 5 -2.4955 8.1905
-4 5 6 16.4146 -11.0914
-4 5 7 -17.9912 11.5996
-4 5 8 -1.2802 25.7351
-4 5 9 10.0118 -3.6419
-4 5 10 -26.7926 -4.9362
-4 5 11 11.9049 4.0119
-4 5 12 -13.0025 1.2686
-4 5 13 -4.8272 -7.5070
-4 5 14 -14.0881 -12.5161
-4 5 15 -8.9441 -3.7495
-4 5 16 1.5669 -9.0627
-4 5 17 -20.7802 3.8041
-4 5 18 7.6828 11.6579
-4 5 19 2.3543 -6.3526
-4 5 20 -4.5589 3.6572
-4 5 21 2.1270 -2.4711
-4 5 22 8.0560 10.3267
-4 5 23 -8.3325 14.3366
-4 5 24 0.3677 10.0392
-4 6 1 -2.2057 6.7059
-4 6 2 2.5862 48.1825
-4 6 3 -0.6681 2.8339
-4 6 4 2.5192 8.1996
-4 6 5 7.3428 -1.1560
-4 6 6 18.3648 -7.6916
-4 6 7 2.6108 10.6542
-4 6 8 9.6729 -10.8332
-4 6 9 6.1011 2.7087
-4 6 10 17.6095 1.4984
-4 6 11 2.6279 1.9462
-4 6 12 -1.9999 -8.0643
-4 6 13 -9.7480 -2.5065
-4 6 14 -13.5697 -15.9554
-4 6 15 1.1304 -1.9393
-4 6 16 8.1988 -16.8894
-4 6 17 -0.4473 2.5460
-4 6 18 1.0231 -14.0922
-4 6 19 -4.5958 -0.8898
-4 6 20 -0.6274 7.6901
-4 6 21 -5.3144 -2.0529
-4 6 22 -9.2957 -1.0326
-4 6 23 -7.4666 -6.1955
-4 6 24 -4.1749 -10.3299
-4 7 1 23.0304 -14.9381
-4 7 2 5.2403 -4.6386
-4 7 3 14.8793 0.9546
-4 7 4 1.2292 2.4992
-4 7 5 -17.3984 -0.2916
-4 7 6 -5.0769 13.4259
-4 7 7 -8.5004 -20.0188
-4 7 8 8.9395 22.2904
-4 7 9 4.6377 -3.0672
-4 7 10 9.8333 7.4338
-4 7 11 -8.5291 -10.5791
-4 7 12 3.6834 11.9099
-4 7 13 0.0937 11.1840
-4 7 14 4.0511 1.0334
-4 7 15 1.1422 5.5029
-4 7 16 6.1103 -6.9841
-4 7 17 -13.6944 -11.6503
-4 7 18 -1.4474 -1.5176
-4 7 19 9.1385 -9.6612
-4 7 20 3.3779 1.7857
-4 7 21 14.5732 7.8111
-4 7 22 2.0254 -7.6094
-4 7 23 2.1621 -9.0440
-4 7 24 0.5084 4.9660
-4 8 1 3.8342 5.0241
-4 8 2 -1.0466 -9.5514
-4 8 3 -0.7544 16.4493
-4 8 4 -8.2541 19.6352
-4 8 5 -4.0399 5.9360
-4 8 6 5.8665 17.5379
-4 8 7 0.6567 9.4312
-4 8 8 -9.0538 -3.2902
-4 8 9 -5.1214 -1.8296
-4 8 10 -1.3450 -25.2340
-4 8 11 -3.3279 1.9768
-4 8 12 -9.2444 -19.8367
-4 8 13 -4.0527 3.4773
-4 8 14 7.6005 -10.7670
-4 8 15 -1.3543 -1.7865
-4 8 16 14.0838 -6.0202
-4 8 17 -3.2444 4.7449
-4 8 18 30.5895 -0.8985
-4 8 19 -0.7096 -1.6719
-4 8 20 6.4588 7.7136
-4 8 21 -1.3156 5.5088
-4 8 22 -8.8860 0.4579
-4 8 23 -4.3253 -6.6800
-4 9 1 8.8290 -23.7927
-4 9 2 6.8226 7.4469
-4 9 3 -1.7205 1.6189
-4 9 4 -1.6977 21.9547
-4 9 5 -0.8106 -0.1108
-4 9 6 -4.8481 -2.3648
-4 9 7 -6.5335 -1.5061
-4 9 8 -2.9482 -1.2470
-4 9 9 -0.2306 -0.7856
-4 9 10 -10.6865 10.5500
-4 9 11 -7.7983 0.0369
-4 9 12 -2.5294 2.8308
-4 9 13 2.4176 -6.5212
-4 9 14 1.5653 -2.1221
-4 9 15 -6.1758 5.9130
-4 9 16 12.6981 16.9496
-4 9 17 -3.7914 -14.0633
-4 9 18 -7.2884 15.6291
-4 9 19 12.7648 -5.8112
-4 9 20 -11.2312 3.2600
-4 9 21 -19.0396 -9.3820
-4 9 22 -7.2210 -7.7893
-4 9 23 2.3599 -8.8062
-4 10 1 10.2071 4.7637
-4 10 2 -18.5728 -25.5582
-4 10 3 -11.3237 8.2189
-4 10 4 2.6621 -6.7589
-4 10 5 -7.4898 5.2475
-4 10 6 -22.5878 -3.0944
-4 10 7 -2.7538 -1.0758
-4 10 8 -17.7666 -12.7763
-4 10 9 -6.0484 -0.0249
-4 10 10 3.3255 -12.4844
-4 10 11 6.4370 -6.7490
-4 10 12 -0.2636 11.8964
-4 10 13 3.0551 -3.8583
-4 10 14 -9.2304 5.0952
-4 10 15 3.3429 -1.8004
-4 10 16 -18.3210 -0.7874
-4 10 17 -6.1115 -0.2932
-4 10 18 16.5374 -2.2023
-4 10 19 1.9863 -2.5660
-4 10 20 7.6661 14.1836
-4 10 21 4.0451 6.7642
-4 10 22 -6.5199 11.2655
-4 10 23 -6.7746 0.0141
-4 11 1 7.2737 9.2527
-4 11 2 9.3507 -7.0006
-4 11 3 -20.9379 -4.6289
-4 11 4 -18.9462 13.8225
-4 11 5 -1.1793 -3.0815
-4 11 6 -11.7742 -0.0267
-4 11 7 13.7768 -12.7918
-4 11 8 11.7226 -3.2364
-4 11 9 21.9045 -5.4016
-4 11 10 3.9492 1.9574
-4 11 11 -8.0454 -5.5529
-4 11 12 -9.5427 9.8035
-4 11 13 -5.9688 -4.4439
-4 11 14 -13.8241 8.4112
-4 11 15 -5.8343 1.8906
-4 11 16 3.0720 1.5463
-4 11 17 12.8550 6.0226
-4 11 18 -6.7362 -3.2830
-4 11 19 -5.5077 17.1051
-4 11 20 -7.7841 -5.8214
-4 11 21 -1.5867 -9.9766
-4 11 22 -0.0401 -3.5599
-4 12 1 -1.8285 0.8844
-4 12 2 2.0209 -9.1745
-4 12 3 -4.5718 4.7761
-4 12 4 15.2924 -17.0261
-4 12 5 1.3701 -1.1238
-4 12 6 12.4661 14.5762
-4 12 7 -0.0308 1.5745
-4 12 8 -4.0782 -3.0405
-4 12 9 -0.6054 -5.3254
-4 12 10 6.7328 6.4603
-4 12 11 -1.1713 4.0002
-4 12 12 20.1073 5.0521
-4 12 13 1.1508 3.3325
-4 12 14 7.5868 25.8988
-4 12 15 3.2709 -2.6964
-4 12 16 -12.1200 -17.7687
-4 12 17 1.8153 -4.5544
-4 12 18 3.0352 -4.8020
-4 12 19 0.9694 -1.0409
-4 12 20 -3.3924 15.8537
-4 12 21 -5.0336 0.5761
-4 13 1 8.1583 2.4971
-4 13 2 9.3512 12.0563
-4 13 3 -17.5183 -8.7671
-4 13 4 -5.1441 8.1976
-4 13 5 -12.2228 -36.8359
-4 13 6 -0.1062 -2.0772
-4 13 7 13.1790 2.1492
-4 13 8 -12.3036 -4.6856
-4 13 9 3.9721 13.7685
-4 13 10 -9.1058 -1.0314
-4 13 11 -13.4481 14.7854
-4 13 12 -14.3326 4.8185
-4 13 13 -2.1237 -19.4615
-4 13 14 4.9608 -7.6665
-4 13 15 -7.5593 -3.1281
-4 13 16 4.4365 -4.6315
-4 13 17 10.0882 -3.0194
-4 13 18 3.7887 5.3634
-4 13 19 4.1483 4.7786
-4 13 20 6.8941 0.6747
-4 13 21 -2.9250 0.3572
-4 14 1 -0.3008 -2.3881
-4 14 2 -16.9155 -6.4017
-4 14 3 -2.7159 -5.6070
-4 14 4 -12.4791 -6.6238
-4 14 5 -7.3536 -2.1954
-4 14 6 9.4252 -7.0594
-4 14 7 4.0094 -4.9029
-4 14 8 14.2436 4.8963
-4 14 9 -3.2444 3.4607
-4 14 10 17.5604 -11.7474
-4 14 11 -3.0060 -3.4289
-4 14 12 25.3782 1.5506
-4 14 13 3.5821 -7.1559
-4 14 14 11.9171 2.9697
-4 14 15 11.2323 1.2355
-4 14 16 4.7405 1.7959
-4 14 17 8.8635 2.3944
-4 14 18 -5.8578 -0.8282
-4 14 19 1.1848 -3.2087
-4 14 20 -6.7826 2.4536
-4 15 1 2.6449 -7.3244
-4 15 2 -6.4937 2.0081
-4 15 3 -6.4628 -7.8389
-4 15 4 -7.9401 0.5960
-4 15 5 -3.8351 -13.0965
-4 15 6 -6.1041 3.2622
-4 15 7 -1.5621 -7.7546
-4 15 8 3.3323 -7.1797
-4 15 9 8.4546 0.5398
-4 15 10 -2.1510 -3.3790
-4 15 11 7.3282 -0.6694
-4 15 12 3.6201 -13.4030
-4 15 13 6.9491 -19.7038
-4 15 14 5.2501 12.6694
-4 15 15 11.0369 -15.8058
-4 15 16 -3.5777 3.8120
-4 15 17 2.1410 -9.9426
-4 15 18 11.6373 2.4485
-4 15 19 3.1343 -2.8971
-4 16 1 -1.6605 0.0549
-4 16 2 -5.7372 -4.3301
-4 16 3 4.3215 -5.7392
-4 16 4 5.2672 -3.2089
-4 16 5 9.0434 -2.9156
-4 16 6 1.6978 15.5570
-4 16 7 4.8082 4.9100
-4 16 8 0.6669 9.9061
-4 16 9 8.2805 -1.8023
-4 16 10 8.0515 1.1135
-4 16 11 -0.4976 -0.1149
-4 16 12 1.2801 14.8861
-4 16 13 -1.9978 0.3947
-4 16 14 -4.8969 -8.9801
-4 16 15 -3.9951 -4.9790
-4 16 16 5.7418 -3.0167
-4 16 17 5.9194 3.1940
-4 16 18 6.6616 3.2300
-4 17 1 -4.7985 4.6666
-4 17 2 -10.7055 1.7915
-4 17 3 -10.2863 -2.1818
-4 17 4 -6.5782 -3.2351
-4 17 5 4.4876 2.2197
-4 17 6 -3.2495 -2.5986
-4 17 7 -9.7845 -0.4329
-4 17 8 -1.4326 7.2619
-4 17 9 -6.2767 1.9980
-4 17 10 6.1342 6.9383
-4 17 11 2.3115 12.9262
-4 17 12 5.5434 6.7471
-4 17 13 -5.7630 16.8893
-4 17 14 -2.6773 4.8189
-4 17 15 4.9406 6.7418
-4 17 16 3.0204 10.4388
-4 17 17 1.6630 0.0340
-4 18 1 -5.3261 -3.9345
-4 18 2 17.0875 5.5254
-4 18 3 -3.7238 -0.2343
-4 18 4 34.3495 21.1748
-4 18 5 2.9766 -3.7673
-4 18 6 -6.0968 8.8439
-4 18 7 1.1317 -0.0379
-4 18 8 -3.8644 6.3740
-4 18 9 -0.4293 7.4391
-4 18 10 0.0714 7.0704
-4 18 11 -2.6020 -4.2206
-4 18 12 -3.9379 8.0227
-4 18 13 -2.5282 3.8635
-4 18 14 -7.5304 -0.2113
-4 18 15 3.7461 -0.4914
-4 18 16 -0.5373 -0.3640
-4 19 1 -10.4891 -8.1394
-4 19 2 12.8148 7.2417
-4 19 3 1.6395 15.6863
-4 19 4 1.1779 -0.1516
-4 19 5 -6.2872 0.6115
-4 19 6 -1.8896 -5.4593
-4 19 7 -4.5681 -2.8112
-4 19 8 -1.7088 -3.3631
-4 19 9 -7.9467 -1.7467
-4 19 10 -0.8390 4.8619
-4 19 11 6.8774 -7.0043
-4 19 12 -1.1921 3.5390
-4 19 13 5.0206 2.0895
-4 19 14 0.7476 8.6156
-4 19 15 7.4676 1.8191
-4 20 1 9.7989 0.9985
-4 20 2 3.3323 -5.6764
-4 20 3 -1.9308 -7.6226
-4 20 4 3.1324 13.1558
-4 20 5 -4.4802 -0.2087
-4 20 6 8.4839 3.3510
-4 20 7 -1.2880 -2.8913
-4 20 8 -5.1708 0.2087
-4 20 9 0.2032 -3.0257
-4 20 10 -8.4059 -7.1732
-4 20 11 -5.7813 -5.5603
-4 20 12 3.9757 -2.0649
-4 20 13 2.0388 -13.3365
-4 21 1 4.3219 -7.3531
-4 21 2 -13.6151 -8.3356
-4 21 3 2.3378 -22.2722
-4 21 4 -14.2899 7.4497
-4 21 5 2.8267 1.6101
-4 21 6 -12.6111 -3.9994
-4 21 7 2.8584 -1.2952
-4 21 8 5.8253 -0.0969
-4 21 9 -2.5607 -6.7064
-4 21 10 0.5455 3.6934
-4 21 11 -1.3909 -5.9310
-4 22 1 -6.3718 6.7410
-4 22 2 15.8704 -8.2235
-4 22 3 -15.4770 -2.4156
-4 22 4 8.4074 7.2177
-4 22 5 -5.6190 -9.8663
-4 22 6 -5.0623 3.6580
-4 22 7 -6.1285 -3.4320
-4 22 8 -0.4421 2.0881
-4 22 9 -14.4082 -2.4626
-4 23 1 2.0399 8.4204
-4 23 2 8.8756 0.4968
-4 23 3 5.4675 7.7796
-4 23 4 -1.0954 3.2174
-4 23 5 4.0220 -0.0002
-4 23 6 1.5697 -7.5783
-3 0 2 1.8671 -7.0378
-3 0 4 -1.3497 21.1599
-3 0 6 -32.3186 19.0588
-3 0 8 -32.6770 6.1387
-3 0 10 9.8271 18.2431
-3 0 12 8.1013 8.2493
-3 0 14 -14.6665 -11.1878
-3 0 16 6.6515 -6.0757
-3 0 18 -1.3192 13.4217
-3 0 20 0.4219 -5.5130
-3 0 22 6.3044 7.1201
-3 0 24 -7.2699 -9.7974
-3 1 1 -9.6242 25.6271
-3 1 2 11.4202 18.3722
-3 1 3 -24.1138 -16.2874
-3 1 4 -43.4089 7.5003
-3 1 5 -3.7031 -32.0814
-3 1 6 -25.0621 1.2183
-3 1 7 -6.9093 -8.3938
-3 1 8 -5.0534 -5.7257
-3 1 9 -27.8793 -27.1160
-3 1 10 -1.2474 17.9337
-3 1 11 -8.3463 12.2829
-3 1 12 -14.6667 9.0445
-3 1 13 -0.5067 6.5941
-3 1 14 -21.4558 -9.4209
-3 1 15 -4.1171 -4.1535
-3 1 16 -13.3869 -5.9208
-3 1 17 -11.7565 -9.7315
-3 1 18 -20.0218 -9.4067
-3 1 19 0.1237 10.8764
-3 1 20 -7.8972 -9.0693
-3 1 21 -2.0676 5.6325
-3 1 22 -2.6473 5.1168
-3 1 23 3.7602 -2.6501
-3 1 24 -3.1517 0.9471
-3 1 25 -6.7717 13.7801
-3 2 1 290.1635 -48.1931
-3 2 2 -0.0852 -11.6420
-3 2 3 12.6480 -12.5543
-3 2 4 -3.1999 10.4075
-3 2 5 28.0889 -100.3295
-3 2 6 -0.9834 -3.1033
-3 2 7 14.1709 1.8313
-3 2 8 17.4622 -4.7838
-3 2 9 10.7793 12.7133
-3 2 10 9.0735 0.2411
-3 2 11 -17.3822 17.8626
-3 2 12 -4.8276 8.8572
-3 2 13 1.7426 -8.7083
-3 2 14 -5.4879 6.2949
-3 2 15 12.4024 -5.3143
-3 2 16 2.6146 -0.3852
-3 2 17 16.6985 28.1566
-3 2 18 -0.7188 3.6911
-3 2 19 -24.2594 4.8037
-3 2 20 -1.6030 5.7134
-3 2 21 7.3403 7.8860
-3 2 22 -0.0972 -0.1521
-3 2 23 -3.2346 9.9370
-3 2 24 6.7116 -0.0262
-3 2 25 -12.7959 7.0966
-3 3 1 1.8510 2.9585
-3 3 2 23.4327 -2.7161
-3 3 3 5.1454 6.6148
-3 3 4 12.0328 9.0689
-3 3 5 6.0486 -3.1854
-3 3 6 -4.8901 -8.7355
-3 3 7 9.5970 10.8209
-3 3 8 10.0874 3.2340
-3 3 9 -16.4824 -0.3999
-3 3 10 20.1020 -23.1784
-3 3 11 0.6429 -8.1542
-3 3 12 -14.0149 2.5871
-3 3 13 -16.1885 3.7268
-3 3 14 10.0846 -4.9537
-3 3 15 4.4000 2.7794
-3 3 16 -5.8546 13.2523
-3 3 17 2.3035 1.3040
-3 3 18 -7.7941 -3.0372
-3 3 19 8.6889 -5.1092
-3 3 20 7.0208 -0.6461
-3 3 21 9.0712 -6.4604
-3 3 22 -4.7236 -1.7264
-3 3 23 11.2217 -1.6619
-3 3 24 -8.4755 -13.2675
-3 3 25 8.2007 4.6423
-3 4 1 -25.7413 13.7827
-3 4 2 2.3085 -4.1833
-3 4 3 54.0883 61.3183
-3 4 4 17.7216 6.2691
-3 4 5 -5.9171 -3.0048
-3 4 6 -3.7254 4.1047
-3 4 7 5.0061 3.6847
-3 4 8 12.6440 -2.4647
-3 4 9 -18.3547 4.5278
-3 4 10 13.0121 -1.7297
-3 4 11 -4.6697 3.5032
-3 4 12 5.6568 -2.6521
-3 4 13 -14.3726 -0.7940
-3 4 14 0.1082 -2.6464
-3 4 15 2.1581 -17.2407
-3 4 16 -1.9521 -1.0147
-3 4 17 3.2456 8.2696
-3 4 18 1.6242 5.1774
-3 4 19 11.7980 30.2102
-3 4 20 2.3259 2.2369
-3 4 21 -3.3942 13.3519
-3 4 22 -6.8750 2.6612
-3 4 23 -6.9754 9.8906
-3 4 24 4.8492 2.7986
-3 4 25 -3.2385 9.9547
-3 5 1 19.6766 4.2680
-3 5 2 19.5993 -16.0477
-3 5 3 13.9478 -1.3828
-3 5 4 -20.5853 2.4387
-3 5 5 13.5914 27.1121
-3 5 6 -6.9231 -7.0962
-3 5 7 8.0385 -7.5701
-3 5 8 -15.2347 -26.7973
-3 5 9 -6.8120 4.8047
-3 5 10 -17.2279 14.2951
-3 5 11 -13.8017 8.7696
-3 5 12 -7.6267 2.9359
-3 5 13 -13.1050 9.0916
-3 5 14 -7.8384 12.1259
-3 5 15 -7.6764 -19.8273
-3 5 16 -14.3478 28.7209
-3 5 17 13.1814 -0.7058
-3 5 18 12.8742 -9.9252
-3 5 19 8.3527 3.3320
-3 5 20 -1.3714 13.0635
-3 5 21 4.2526 5.7497
-3 5 22 -8.2921 -1.9110
-3 5 23 3.3032 -1.0265
-3 5 24 4.6478 -0.4188
-3 6 1 -17.9199 13.4188
-3 6 2 -1.7809 4.2589
-3 6 3 -12.0837 2.5616
-3 6 4 0.9634 -0.7703
-3 6 5 -18.8947 37.0296
-3 6 6 -2.4116 -2.3965
-3 6 7 -18.6726 18.0822
-3 6 8 -3.2431 -7.1583
-3 6 9 -11.7570 -5.8337
-3 6 10 -2.2980 -1.1588
-3 6 11 -17.1722 8.7543
-3 6 12 1.9694 -5.1711
-3 6 13 -24.2067 6.6395
-3 6 14 4.7608 -1.5137
-3 6 15 2.1367 -2.4911
-3 6 16 7.0408 0.6993
-3 6 17 -0.3280 -16.4229
-3 6 18 0.5808 4.3061
-3 6 19 3.0910 -5.2230
-3 6 20 3.3728 -0.1533
-3 6 21 -12.1459 -6.3116
-3 6 22 -13.8956 4.1033
-3 6 23 -1.8169 -5.6872
-3 6 24 -10.6765 -7.1685
-3 7 1 5.3254 22.8533
-3 7 2 2.4163 11.4943
-3 7 3 -0.2295 17.7152
-3 7 4 -2.7057 10.5974
-3 7 5 0.0399 -19.7304
-3 7 6 0.5944 2.0335
-3 7 7 21.0131 -6.0192
-3 7 8 8.5105 13.6952
-3 7 9 16.7981 4.5840
-3 7 10 -3.6848 -7.4200
-3 7 11 -22.2373 -1.8147
-3 7 12 6.2974 1.3889
-3 7 13 6.8602 -18.4046
-3 7 14 0.9573 13.0519
-3 7 15 -0.9066 8.0800
-3 7 16 -6.6717 -2.2564
-3 7 17 1.9395 5.3667
-3 7 18 -8.6830 10.4756
-3 7 19 -7.8573 2.7014
-3 7 20 -7.7194 1.1055
-3 7 21 -4.4616 -14.0247
-3 7 22 -2.5795 -3.8608
-3 7 23 4.0525 1.8226
-3 7 24 0.6588 5.7026
-3 8 1 -39.2493 8.5541
-3 8 2 -9.7475 -5.5577
-3 8 3 4.5383 2.8001
-3 8 4 -2.0919 -4.6958
-3 8 5 17.5893 31.7871
-3 8 6 -1.3063 -3.6542
-3 8 7 10.0964 15.0327
-3 8 8 -1.4196 6.5554
-3 8 9 -0.7184 17.5286
-3 8 10 -7.6435 2.6927
-3 8 11 1.1862 19.8059
-3 8 12 0.9086 1.0991
-3 8 13 -4.9321 -8.6353
-3 8 14 -6.2470 -3.0906
-3 8 15 -0.5069 -0.3826
-3 8 16 -0.6496 -0.1663
-3 8 17 -7.2095 -15.3549
-3 8 18 -0.5784 -4.9593
-3 8 19 11.7450 -5.5553
-3 8 20 5.5707 2.4570
-3 8 21 9.4443 -0.3484
-3 8 22 -1.7626 4.1679
-3 8 23 10.0503 0.6442
-3 8 24 -9.0575 -7.5955
-3 9 1 3.1553 20.6263
-3 9 2 -4.3272 -6.4625
-3 9 3 -6.9773 29.9666
-3 9 4 13.2745 -6.2465
-3 9 5 -0.5286 -9.9096
-3 9 6 10.9916 0.5284
-3 9 7 0.9805 6.9225
-3 9 8 -22.4772 -0.4888
-3 9 9 -7.4764 19.4029
-3 9 10 -1.2655 6.7140
-3 9 11 1.2182 -5.0664
-3 9 12 -2.1092 -1.8790
-3 9 13 0.3433 7.2821
-3 9 14 0.6629 24.0641
-3 9 15 7.6554 16.1717
-3 9 16 -4.5206 1.7550
-3 9 17 -19.9138 13.9162
-3 9 18 -6.2673 1.3683
-3 9 19 -6.4337 1.5717
-3 9 20 -8.3579 -12.7588
-3 9 21 8.7289 2.8164
-3 9 22 5.0063 -5.0605
-3 9 23 1.2476 -2.7364
-3 10 1 30.5317 -12.7774
-3 10 2 -6.9870 8.2171
-3 10 3 -4.5460 -15.0128
-3 10 4 -5.6357 -6.1259
-3 10 5 -10.3771 11.8373
-3 10 6 4.7265 -0.0546
-3 10 7 -26.9491 2.7997
-3 10 8 3.3783 -1.8514
-3 10 9 -16.4141 -0.6383
-3 10 10 3.1031 1.8942
-3 10 11 -0.4270 -22.7284
-3 10 12 -0.5405 2.2632
-3 10 13 8.6075 3.6015
-3 10 14 4.6961 -1.2613
-3 10 15 -12.1771 7.7144
-3 10 16 -2.6470 -3.5777
-3 10 17 -6.0210 -3.3789
-3 10 18 -4.7136 -3.4939
-3 10 19 -1.3991 -9.9928
-3 10 20 6.0740 -0.2390
-3 10 21 1.3736 -1.2156
-3 10 22 3.7097 6.4345
-3 10 23 3.1954 7.5569
-3 11 1 1.5573 13.8692
-3 11 2 -13.8005 -15.9943
-3 11 3 -15.3233 -6.8797
-3 11 4 -0.2200 -0.1033
-3 11 5 8.9106 10.6571
-3 11 6 0.3235 18.5772
-3 11 7 7.8302 -1.7626
-3 11 8 -4.3648 21.2200
-3 11 9 -5.7188 -7.7938
-3 11 10 2.1704 -17.1726
-3 11 11 -13.7651 9.4886
-3 11 12 4.5484 -2.5337
-3 11 13 7.5742 -3.6755
-3 11 14 -5.2026 0.5010
-3 11 15 11.1803 14.8947
-3 11 16 -9.2665 -0.1710
-3 11 17 13.2204 8.3572
-3 11 18 -1.9513 -7.3843
-3 11 19 0.5859 -3.8759
-3 11 20 4.4516 -7.7539
-3 11 21 2.0861 -5.2999
-3 11 22 0.1730 -1.1529
-3 12 1 -0.7885 1.3330
-3 12 2 6.0549 -0.3613
-3 12 3 -9.6561 11.5276
-3 12 4 -2.8413 2.9620
-3 12 5 -8.8851 -13.6366
-3 12 6 -3.2351 2.3152
-3 12 7 -1.4826 -12.2479
-3 12 8 0.2356 -5.9011
-3 12 9 -3.3354 -21.3710
-3 12 10 -1.7102 3.4122
-3 12 11 14.8147 -8.9479
-3 12 12 -2.5406 -2.1461
-3 12 13 -4.3015 3.1521
-3 12 14 0.8376 5.0549
-3 12 15 -22.3641 -7.2620
-3 12 16 3.3134 0.3418
-3 12 17 -33.5303 5.2995
-3 12 18 -0.0035 -6.9973
-3 12 19 -9.1721 -4.3274
-3 12 20 -4.1693 -3.5745
-3 12 21 1.3631 -8.7227
-3 12 22 -3.3068 -3.8966
-3 13 1 -4.6477 -7.7913
-3 13 2 6.4704 -17.0864
-3 13 3 9.8312 -20.8677
-3 13 4 -8.1827 1.9994
-3 13 5 3.7861 -11.4587
-3 13 6 5.1636 -1.1167
-3 13 7 -1.7939 6.1918
-3 13 8 12.3594 7.7106
-3 13 9 13.7742 -10.8248
-3 13 10 4.5109 -0.0713
-3 13 11 5.1012 10.9685
-3 13 12 2.6921 1.8882
-3 13 13 -2.3643 5.8250
-3 13 14 -5.9700 -8.8979
-3 13 15 -4.4990 15.1960
-3 13 16 -0.8935 -0.6936
-3 13 17 -0.5674 7.5061
-3 13 18 -7.0926 11.4012
-3 13 19 0.8704 4.6113
-3 13 20 -8.8368 8.0465
-3 13 21 -2.8512 -1.4875
-3 14 1 -0.2382 15.6881
-3 14 2 4.8075 -2.1990
-3 14 3 -18.1892 11.4892
-3 14 4 1.4573 1.0571
-3 14 5 -4.6333 -12.6072
-3 14 6 -2.6721 0.5095
-3 14 7 12.1133 -9.6239
-3 14 8 5.2075 -1.5867
-3 14 9 5.2254 2.2406
-3 14 10 -2.7234 -1.0458
-3 14 11 1.9008 2.2095
-3 14 12 -0.4583 0.5083
-3 14 13 -6.5507 18.6211
-3 14 14 1.4856 -0.9911
-3 14 15 3.9675 7.0787
-3 14 16 -1.8145 -0.3832
-3 14 17 6.2416 2.4038
-3 14 18 -3.1567 -1.7627
-3 14 19 -9.1902 -12.9310
-3 14 20 4.9934 -5.9951
-3 15 1 -6.8548 1.3548
-3 15 2 -1.2505 -5.8768
-3 15 3 -3.2937 -1.4727
-3 15 4 8.5101 1.5851
-3 15 5 -1.2573 -10.4907
-3 15 6 -15.3112 -9.2162
-3 15 7 13.2258 -15.7522
-3 15 8 14.7734 -7.0289
-3 15 9 7.9230 0.1279
-3 15 10 0.9908 19.6157
-3 15 11 7.7259 -7.8208
-3 15 12 -7.7501 8.0952
-3 15 13 -6.5094 6.5960
-3 15 14 -5.0800 1.2812
-3 15 15 6.8808 0.3204
-3 15 16 11.1778 7.0611
-3 15 17 -4.1457 -6.0093
-3 15 18 -9.4867 2.2936
-3 15 19 4.1283 -1.0883
-3 16 1 -6.1685 0.3708
-3 16 2 -1.7795 4.3179
-3 16 3 -20.1778 -11.5039
-3 16 4 -2.8479 4.5265
-3 16 5 -37.9106 -24.9676
-3 16 6 -6.2880 1.9484
-3 16 7 9.5965 -34.0888
-3 16 8 -2.8345 -8.2053
-3 16 9 23.2665 -2.6419
-3 16 10 -2.7273 -4.0505
-3 16 11 19.7464 16.2918
-3 16 12 -1.8881 -1.6399
-3 16 13 7.5579 -2.6236
-3 16 14 5.1175 5.3826
-3 16 15 -5.0356 3.6546
-3 16 16 6.3096 10.1920
-3 16 17 4.2234 7.0196
-3 16 18 5.8145 -3.5710
-3 17 1 12.3371 -3.7002
-3 17 2 22.2422 -5.4082
-3 17 3 3.0758 -7.8928
-3 17 4 -1.2091 -21.0390
-3 17 5 -1.5424 -1.4630
-3 17 6 13.2339 -31.2164
-3 17 7 -0.2997 -1.2068
-3 17 8 5.5671 -5.0875
-3 17 9 -3.0868 -2.9286
-3 17 10 0.4507 -2.0317
-3 17 11 3.3551 -4.3193
-3 17 12 1.0037 6.9470
-3 17 13 8.6234 1.3697
-3 17 14 1.2309 -14.3782
-3 17 15 -0.3447 1.3990
-3 17 16 -4.6712 -9.2071
-3 17 17 3.6552 13.6936
-3 18 1 1.9289 -7.2409
-3 18 2 -2.7267 4.3114
-3 18 3 -6.7545 -9.1027
-3 18 4 -2.2410 13.1267
-3 18 5 3.6402 -19.2451
-3 18 6 -9.7045 -3.0798
-3 18 7 -7.0614 -8.7067
-3 18 8 2.0027 0.6497
-3 18 9 9.5505 -0.6008
-3 18 10 -0.3157 3.0416
-3 18 11 10.5592 5.3982
-3 18 12 0.5265 5.0292
-3 18 13 -1.1660 18.4540
-3 18 14 -4.3334 1.5023
-3 18 15 1.4902 11.1182
-3 18 16 -7.1089 5.1704
-3 19 1 3.4716 6.6761
-3 19 2 -17.2205 -8.1539
-3 19 3 10.1453 24.5083
-3 19 4 -0.2189 4.0802
-3 19 5 -5.6114 -3.8466
-3 19 6 4.3940 7.0253
-3 19 7 3.5207 -3.4991
-3 19 8 -5.2422 -1.1654
-3 19 9 -4.3650 8.3509
-3 19 10 -7.5619 2.3083
-3 19 11 2.3216 -5.0027
-3 19 12 -7.0330 -2.1333
-3 19 13 4.2123 4.2404
-3 19 14 0.9224 11.7847
-3 19 15 -0.1624 2.8734
-3 20 1 1.6505 -6.2810
-3 20 2 -8.7378 3.5170
-3 20 3 -0.5017 3.8383
-3 20 4 -3.1329 8.0870
-3 20 5 8.7234 7.9843
-3 20 6 -10.4783 4.9839
-3 20 7 11.6627 9.0361
-3 20 8 -4.5769 1.4798
-3 20 9 -0.9381 8.0915
-3 20 10 2.3004 3.8597
-3 20 11 -5.6889 5.8065
-3 20 12 -10.7629 -3.8289
-3 20 13 -3.2730 5.5014
-3 21 1 7.5238 -6.7747
-3 21 2 -15.8176 0.2753
-3 21 3 2.4590 -2.7024
-3 21 4 6.1960 -2.5450
-3 21 5 -4.4883 0.9691
-3 21 6 -0.1921 0.8009
-3 21 7 8.4216 2.7971
-3 21 8 -2.5576 -4.0104
-3 21 9 -12.1395 1.3607
-3 21 10 -1.3575 0.5069
-3 21 11 -3.8088 -10.1936
-3 21 12 0.4656 -6.8934
-3 22 1 3.9147 3.5397
-3 22 2 0.1197 -1.9979
-3 22 3 7.1534 4.6946
-3 22 4 3.4789 -7.4381
-3 22 5 -1.0940 2.5255
-3 22 6 -2.1836 2.9679
-3 22 7 3.1026 3.8835
-3 22 8 -5.3684 -8.6959
-3 22 9 2.2443 7.4430
-3 23 1 -7.3988 -0.2189
-3 23 2 15.0051 -2.1941
-3 23 3 -5.9337 -0.1745
-3 23 4 10.0808 -15.9433
-3 23 5 0.5806 -6.0914
-3 23 6 14.9836 4.3932
-2 0 2 -66.0084 32.2071
-2 0 4 -197.2506 -88.9834
-2 0 6 25.3521 -8.4072
-2 0 8 -53.1726 65.8372
-2 0 10 -49.5024 -14.1343
-2 0 12 13.6752 -14.5065
-2 0 14 -17.5573 -7.1416
-2 0 16 1.7749 -23.1946
-2 0 18 -2.2580 -12.5425
-2 0 20 15.3190 0.8646
-2 0 22 -6.2110 -6.0786
-2 0 24 3.0588 3.2027
-2 1 1 -17.7850 -36.8233
-2 1 2 -7.0462 -25.8227
-2 1 3 -4.3867 14.3854
-2 1 4 -10.4426 3.7758
-2 1 5 -12.5571 -1.5913
-2 1 6 -9.3130 -1.2439
-2 1 7 -5.0619 2.2064
-2 1 8 -9.9101 -8.0208
-2 1 9 -21.9154 -10.6889
-2 1 10 24.0407 -1.8171
-2 1 11 -4.3599 -1.5085
-2 1 12 6.8531 13.2585
-2 1 13 1.1280 -3.1188
-2 1 14 6.3759 -5.2857
-2 1 15 5.3692 36.9093
-2 1 16 5.3728 13.7945
-2 1 17 -10.0047 4.3882
-2 1 18 -1.0144 23.0485
-2 1 19 -1.2912 -5.1566
-2 1 20 -16.1835 11.0692
-2 1 21 -5.9392 -12.9289
-2 1 22 -15.0058 -16.9241
-2 1 23 -5.2551 -19.4383
-2 1 24 13.0476 -4.0248
-2 1 25 -1.2824 2.7946
-2 2 1 -2.8880 15.2897
-2 2 2 -2.8683 31.3462
-2 2 3 -1.2287 -11.5374
-2 2 4 -5.5820 3.7631
-2 2 5 -2.4654 -10.0351
-2 2 6 3.2611 18.1711
-2 2 7 -6.0481 -4.5033
-2 2 8 6.9134 19.8757
-2 2 9 -19.4030 12.5204
-2 2 10 -14.8832 10.0999
-2 2 11 -16.0347 -6.1052
-2 2 12 -1.6428 -2.6245
-2 2 13 -0.4631 6.5052
-2 2 14 -4.2828 6.9085
-2 2 15 -6.3740 7.1725
-2 2 16 4.4054 -10.0254
-2 2 17 -0.7920 -5.0204
-2 2 18 21.2200 13.5184
-2 2 19 -4.6462 3.6966
-2 2 20 -8.2162 -6.8155
-2 2 21 -3.1666 3.8581
-2 2 22 -4.4461 -0.3570
-2 2 23 4.9669 -8.2233
-2 2 24 2.7227 -5.1759
-2 2 25 3.3625 -4.6655
-2 3 1 -0.8448 17.6665
-2 3 2 12.8025 24.8052
-2 3 3 19.0453 -14.8063
-2 3 4 -20.0658 -21.3697
-2 3 5 -26.6711 -27.8300
-2 3 6 -6.6336 -27.2148
-2 3 7 26.6354 -8.0108
-2 3 8 -1.4845 -18.6929
-2 3 9 15.5132 5.7290
-2 3 10 -7.2900 -8.8842
-2 3 11 5.6534 8.1801
-2 3 12 7.1219 -12.6650
-2 3 13 23.1730 1.4748
-2 3 14 8.4306 -5.7177
-2 3 15 29.6186 13.9801
-2 3 16 -0.8511 -0.5431
-2 3 17 15.6013 20.1038
-2 3 18 -9.5963 -0.4910
-2 3 19 -9.0981 11.1221
-2 3 20 -2.9271 -6.1833
-2 3 21 -17.7595 -19.8160
-2 3 22 -1.5192 -6.3565
-2 3 23 28.5797 3.5775
-2 3 24 -4.3556 -4.5412
-2 3 25 0.3821 10.9725
-2 4 1 12.8130 4.0185
-2 4 2 -0.4867 67.7816
-2 4 3 -15.5499 -11.4770
-2 4 4 53.3264 69.8973
-2 4 5 -3.8900 -7.6496
-2 4 6 -8.4161 -11.8406
-2 4 7 6.4915 -0.4334
-2 4 8 16.5747 -11.3052
-2 4 9 -3.6401 7.2072
-2 4 10 8.4273 -3.9853
-2 4 11 -0.8986 0.1210
-2 4 12 3.3303 2.6152
-2 4 13 4.4589 8.1618
-2 4 14 2.9574 -21.8785
-2 4 15 -1.8529 1.5343
-2 4 16 8.8440 0.3162
-2 4 17 -0.8812 2.8863
-2 4 18 -5.5147 7.3197
-2 4 19 4.9470 2.4163
-2 4 20 -11.0996 19.2805
-2 4 21 4.9190 13.6742
-2 4 22 1.1058 12.9592
-2 4 23 -6.7943 10.3373
-2 4 24 -10.0685 9.7938
-2 4 25 0.8613 5.8725
-2 5 1 -26.4344 -21.3092
-2 5 2 6.9673 6.6645
-2 5 3 -16.3244 -23.8489
-2 5 4 4.1054 25.0710
-2 5 5 21.1696 -12.4977
-2 5 6 8.9021 11.7463
-2 5 7 -18.6869 -1.8018
-2 5 8 -11.2911 15.7412
-2 5 9 -1.2766 14.5637
-2 5 10 -3.7486 -11.7673
-2 5 11 1.5225 -9.3793
-2 5 12 9.2887 1.3842
-2 5 13 23.7121 4.6447
-2 5 14 -1.0421 21.2596
-2 5 15 6.1145 -4.8049
-2 5 16 -3.6699 3.2784
-2 5 17 15.3749 6.2850
-2 5 18 -3.6275 0.5354
-2 5 19 -12.7799 16.8396
-2 5 20 -9.6175 -6.4367
-2 5 21 5.8891 -19.1679
-2 5 22 4.8217 10.7128
-2 5 23 -1.7787 -5.6178
-2 5 24 -7.9001 2.9781
-2 5 25 -4.0989 1.0218
-2 6 1 -5.0330 15.5230
-2 6 2 -33.0081 30.3480
-2 6 3 -4.8613 15.8320
-2 6 4 15.1355 16.4709
-2 6 5 -5.0616 -7.4639
-2 6 6 5.2943 23.5541
-2 6 7 -3.8016 -1.4067
-2 6 8 -2.9064 16.5987
-2 6 9 -4.4695 4.8519
-2 6 10 -4.1755 16.6795
-2 6 11 5.9664 -8.2178
-2 6 12 -13.8158 -0.8572
-2 6 13 3.0002 0.9857
-2 6 14 14.9164 2.2664
-2 6 15 0.4001 -2.0456
-2 6 16 0.3179 9.0779
-2 6 17 1.3764 -0.3557
-2 6 18 5.9700 -1.0842
-2 6 19 10.0016 -4.2828
-2 6 20 -3.6591 1.0825
-2 6 21 3.5380 6.4418
-2 6 22 -13.5607 -0.6003
-2 6 23 -9.6255 6.0078
-2 6 24 3.8778 -1.0560
-2 7 1 -7.7939 -4.9962
-2 7 2 6.1202 11.3994
-2 7 3 -0.7457 -19.9216
-2 7 4 -23.4547 -1.8143
-2 7 5 9.5040 -2.4049
-2 7 6 -7.8645 4.9765
-2 7 7 18.4738 4.3282
-2 7 8 -12.5240 8.5063
-2 7 9 0.4460 -7.3442
-2 7 10 1.6571 0.1705
-2 7 11 1.9765 -23.5584
-2 7 12 4.2366 6.5029
-2 7 13 5.1129 5.2514
-2 7 14 -9.6384 4.8947
-2 7 15 -15.8479 20.6900
-2 7 16 4.0026 -1.2166
-2 7 17 -5.3660 12.2856
-2 7 18 10.2089 4.8575
-2 7 19 -12.2309 3.3070
-2 7 20 8.2612 0.3662
-2 7 21 -0.1449 23.1341
-2 7 22 -3.6123 -1.7598
-2 7 23 -1.8029 20.3990
-2 7 24 -4.6105 4.8300
-2 8 1 -0.0550 8.2803
-2 8 2 -15.5089 13.3116
-2 8 3 -10.0206 5.2501
-2 8 4 -31.1675 3.5811
-2 8 5 -3.2899 -0.3095
-2 8 6 -22.7233 25.9299
-2 8 7 -5.9377 -2.3192
-2 8 8 -6.6157 10.5685
-2 8 9 -5.7906 -4.7404
-2 8 10 -4.9905 2.8745
-2 8 11 0.1253 -7.1275
-2 8 12 9.4205 -1.2058
-2 8 13 1.8568 -3.5846
-2 8 14 -17.1642 11.6808
-2 8 15 0.9911 -0.4955
-2 8 16 3.2042 7.3797
-2 8 17 -4.5418 -2.4153
-2 8 18 -11.0153 12.3076
-2 8 19 -2.0419 -3.0951
-2 8 20 -5.7525 5.0031
-2 8 21 7.6682 -5.2292
-2 8 22 0.7302 0.1996
-2 8 23 10.9604 2.7785
-2 8 24 1.7033 -8.3233
-2 9 1 -17.2889 -2.7826
-2 9 2 -3.2375 14.0671
-2 9 3 19.9995 4.5786
-2 9 4 12.2742 32.2277
-2 9 5 -4.8968 26.9438
-2 9 6 -19.4157 -4.1832
-2 9 7 -16.4755 -12.0842
-2 9 8 4.3557 -12.7763
-2 9 9 5.9912 -33.1701
-2 9 10 -0.2238 -18.3444
-2 9 11 0.6343 -5.5586
-2 9 12 -0.9657 0.4877
-2 9 13 -5.9841 -5.4075
-2 9 14 13.3996 -11.8178
-2 9 15 -7.4745 4.8955
-2 9 16 3.5306 -4.0996
-2 9 17 -8.4336 0.9684
-2 9 18 -2.6809 -13.5796
-2 9 19 3.7947 -1.4225
-2 9 20 -1.7994 0.1683
-2 9 21 5.2098 -10.9959
-2 9 22 -1.6926 -5.0895
-2 9 23 -3.1900 6.7629
-2 10 1 -3.6391 5.4022
-2 10 2 -7.8696 1.2245
-2 10 3 -3.6478 3.4021
-2 10 4 -22.5622 -7.0731
-2 10 5 -3.3361 2.9697
-2 10 6 -5.2096 -11.1477
-2 10 7 0.1386 -2.9864
-2 10 8 -8.3083 7.2109
-2 10 9 -0.0986 -6.7781
-2 10 10 -5.0700 11.0997
-2 10 11 -1.7700 1.6040
-2 10 12 -21.8172 15.5156
-2 10 13 6.3931 5.0435
-2 10 14 -10.4866 1.1905
-2 10 15 -0.5870 4.5642
-2 10 16 -3.4709 -5.6358
-2 10 17 -0.6163 -3.4938
-2 10 18 13.1978 0.1393
-2 10 19 2.8538 -6.0550
-2 10 20 12.0603 -5.9237
-2 10 21 8.4907 -1.0169
-2 10 22 0.8779 -0.9920
-2 10 23 6.5367 3.2014
-2 11 1 -11.1371 -11.1066
-2 11 2 13.7295 0.8158
-2 11 3 -6.1270 14.9899
-2 11 4 -7.7765 10.7974
-2 11 5 -28.9823 16.7662
-2 11 6 -18.0077 4.0588
-2 11 7 -6.1722 -13.9778
-2 11 8 -2.8342 -3.5306
-2 11 9 -8.2842 -9.6069
-2 11 10 10.0591 21.7634
-2 11 11 15.9970 -12.4283
-2 11 12 -2.3793 -9.1147
-2 11 13 -12.2643 2.6457
-2 11 14 -9.8568 -12.7664
-2 11 15 -5.5190 -12.2403
-2 11 16 12.8762 -13.1519
-2 11 17 -4.9476 -1.3030
-2 11 18 14.0854 -6.1811
-2 11 19 -3.6303 -6.3538
-2 11 20 9.8444 -2.6760
-2 11 21 5.0692 2.6799
-2 11 22 7.0661 5.5886
-2 12 1 -3.7868 -4.0277
-2 12 2 -23.3836 -20.0775
-2 12 3 2.0786 0.0341
-2 12 4 1.2039 -42.4154
-2 12 5 5.5155 15.2630
-2 12 6 21.3517 -16.6600
-2 12 7 3.9066 -1.7134
-2 12 8 1.1011 -2.1910
-2 12 9 3.1455 4.6660
-2 12 10 -9.2903 -10.0877
-2 12 11 -2.2263 -0.4620
-2 12 12 7.6857 -19.1818
-2 12 13 -2.0588 1.2602
-2 12 14 4.8975 -4.2551
-2 12 15 5.6510 1.8302
-2 12 16 15.7741 -14.7015
-2 12 17 8.2916 -1.0890
-2 12 18 -7.0938 -14.5773
-2 12 19 -0.8339 3.4697
-2 12 20 -10.0196 -5.8984
-2 12 21 3.3560 1.2133
-2 12 22 0.5484 -10.9836
-2 13 1 15.2728 5.9268
-2 13 2 -0.2712 4.1097
-2 13 3 2.9666 14.7396
-2 13 4 -8.9561 1.8310
-2 13 5 -19.0929 -2.7210
-2 13 6 -2.9748 -1.6458
-2 13 7 -20.6893 -14.1172
-2 13 8 7.7595 -12.9000
-2 13 9 -4.4396 7.3844
-2 13 10 -1.6349 -13.2176
-2 13 11 -13.2424 -11.5616
-2 13 12 -7.9011 9.9247
-2 13 13 5.5887 -10.2657
-2 13 14 9.3992 1.9364
-2 13 15 -4.1661 -15.2623
-2 13 16 1.3918 6.8171
-2 13 17 4.7578 -8.5399
-2 13 18 0.7491 -4.1773
-2 13 19 15.2374 -9.1740
-2 13 20 -1.2275 0.5576
-2 13 21 5.2861 1.0075
-2 14 1 3.5304 5.4330
-2 14 2 -22.8315 -22.1657
-2 14 3 6.0242 1.3788
-2 14 4 -14.0877 -23.9957
-2 14 5 4.8392 0.1062
-2 14 6 12.1946 -11.6102
-2 14 7 1.8914 7.7510
-2 14 8 10.4403 6.4803
-2 14 9 1.7093 -2.8256
-2 14 10 -5.0527 -6.7008
-2 14 11 0.6872 6.6134
-2 14 12 1.3033 -13.2081
-2 14 13 0.3735 7.7936
-2 14 14 8.2814 3.5102
-2 14 15 -0.6486 8.5215
-2 14 16 -2.3969 -11.2304
-2 14 17 2.3759 -3.2562
-2 14 18 8.4609 -2.3336
-2 14 19 16.2041 -0.8720
-2 14 20 -2.8639 -8.1404
-2 15 1 -1.9277 -3.8567
-2 15 2 -7.4377 1.6327
-2 15 3 -13.4828 -4.4502
-2 15 4 -3.1373 -8.7616
-2 15 5 -16.6467 -10.4055
-2 15 6 -3.5009 -8.7991
-2 15 7 -3.5346 1.6613
-2 15 8 19.5070 7.9021
-2 15 9 -4.6117 3.3915
-2 15 10 -0.4085 8.9477
-2 15 11 5.8517 14.3793
-2 15 12 9.7933 0.2585
-2 15 13 8.8284 16.2111
-2 15 14 -11.3550 1.6616
-2 15 15 -0.5812 0.1962
-2 15 16 6.0988 -5.2929
-2 15 17 -2.8458 -5.1706
-2 15 18 -10.4042 8.6557
-2 15 19 1.5233 -0.8329
-2 15 20 10.9095 -6.2455
-2 16 1 -5.4311 -0.2659
-2 16 2 -8.1158 1.2275
-2 16 3 0.4917 0.6681
-2 16 4 13.6823 -4.6143
-2 16 5 -0.2471 5.5039
-2 16 6 -14.5056 6.4924
-2 16 7 -0.7027 0.4949
-2 16 8 -8.1557 -2.2792
-2 16 9 10.1336 0.6022
-2 16 10 -5.1943 4.2310
-2 16 11 -5.3278 3.4788
-2 16 12 -14.0193 -4.3321
-2 16 13 -7.4222 3.6207
-2 16 14 7.1901 -7.1788
-2 16 15 -0.4073 -2.4692
-2 16 16 3.8715 10.4350
-2 16 17 8.5847 -11.0434
-2 16 18 1.2760 11.8488
-2 16 19 12.7029 0.0495
-2 17 1 -17.0193 -1.6116
-2 17 2 15.7776 -8.9927
-2 17 3 -4.0662 -9.1704
-2 17 4 2.0372 -4.5609
-2 17 5 7.2592 -16.1849
-2 17 6 -4.3639 -5.6982
-2 17 7 11.0661 1.1504
-2 17 8 -4.1510 -3.2193
-2 17 9 -0.3749 1.1244
-2 17 10 -1.7247 1.4679
-2 17 11 0.4771 -6.5028
-2 17 12 -5.6660 -8.8563
-2 17 13 -11.8404 -10.7121
-2 17 14 2.1105 -6.5520
-2 17 15 -10.3233 2.8432
-2 17 16 -7.1357 3.4784
-2 17 17 6.1034 3.4270
-2 17 18 5.5664 -13.0438
-2 18 1 -1.9417 -2.0543
-2 18 2 -8.9730 -7.2485
-2 18 3 5.3126 -3.7425
-2 18 4 -5.2248 -4.1892
-2 18 5 5.4373 5.6152
-2 18 6 6.3930 -17.0915
-2 18 7 -0.8851 -2.1680
-2 18 8 8.0412 -15.4497
-2 18 9 -3.0213 0.3987
-2 18 10 2.7352 3.5497
-2 18 11 -1.0056 5.5448
-2 18 12 -0.7631 -1.5810
-2 18 13 0.3010 2.5280
-2 18 14 2.1513 -10.9790
-2 18 15 -6.5537 5.3776
-2 18 16 12.2480 -0.4198
-2 19 1 9.9646 0.1576
-2 19 2 2.4160 19.8845
-2 19 3 16.9941 -13.0637
-2 19 4 1.3131 23.1652
-2 19 5 19.1363 -9.4023
-2 19 6 0.6986 4.7095
-2 19 7 14.2618 -6.3754
-2 19 8 3.4018 -9.8495
-2 19 9 -1.5959 -1.8105
-2 19 10 3.6066 -0.9314
-2 19 11 -2.5505 -3.2037
-2 19 12 8.3593 5.3165
-2 19 13 12.8748 -4.4011
-2 19 14 -0.4621 4.3709
-2 19 15 11.8117 3.0941
-2 20 1 -3.3333 2.0009
-2 20 2 12.8221 1.8241
-2 20 3 -13.1549 -3.0782
-2 20 4 -12.0591 -3.6841
-2 20 5 -3.0728 0.4902
-2 20 6 -3.6692 -12.7910
-2 20 7 -6.9217 11.4575
-2 20 8 6.9752 -8.3478
-2 20 9 2.6498 3.0299
-2 20 10 3.4833 -0.5026
-2 20 11 3.8021 -2.8114
-2 20 12 9.8717 0.1542
-2 20 13 5.2050 8.6776
-2 20 14 7.7885 3.0554
-2 21 1 8.6899 -9.3306
-2 21 2 2.0153 -3.3010
-2 21 3 -1.7605 -5.5030
-2 21 4 1.6594 5.1736
-2 21 5 5.6778 -2.9321
-2 21 6 -4.4397 2.5767
-2 21 7 -1.2872 6.5799
-2 21 8 -0.7696 11.9707
-2 21 9 2.9383 -1.4785
-2 21 10 2.2113 5.8795
-2 21 11 1.7113 -3.6931
-2 21 12 -7.2631 2.7856
-2 22 1 -3.1306 -6.6634
-2 22 2 -3.9594 18.0652
-2 22 3 -0.0309 -2.8719
-2 22 4 -4.4287 2.4065
-2 22 5 9.6142 -4.0197
-2 22 6 -2.9110 1.7964
-2 22 7 -3.4525 5.2554
-2 22 8 0.7197 -4.9351
-2 22 9 -14.5349 -5.4691
-2 22 10 5.4729 5.6579
-2 23 1 -13.2035 5.3177
-2 23 2 1.0873 9.8659
-2 23 3 -18.4435 -0.9971
-2 23 4 5.8716 11.3283
-2 23 5 2.6732 -8.9810
-2 23 6 5.8527 17.7297
-2 23 7 7.6044 0.9483
-1 0 2 -13.2549 -2.2713
-1 0 4 1.5107 21.7656
-1 0 6 -25.9810 17.8604
-1 0 8 7.7864 -19.2760
-1 0 10 2.6989 1.2495
-1 0 12 12.7006 3.3628
-1 0 14 -8.0943 6.5367
-1 0 16 -4.4123 -10.3979
-1 0 18 11.0019 9.6583
-1 0 20 -0.8173 -1.4725
-1 0 22 -13.4607 2.7103
-1 0 24 -8.1978 -5.8355
-1 1 1 29.1909 8.6668
-1 1 2 0.5846 5.7345
-1 1 3 -28.3795 -28.7329
-1 1 4 -30.1879 -9.1277
-1 1 5 9.1611 -21.8391
-1 1 6 33.6674 -32.8904
-1 1 7 -1.6591 11.8361
-1 1 8 40.4235 31.8047
-1 1 9 14.4888 9.4376
-1 1 10 1.5785 27.8350
-1 1 11 -3.4267 -13.5555
-1 1 12 -5.4324 6.4495
-1 1 13 -2.3103 9.5479
-1 1 14 11.0792 -6.5465
-1 1 15 -0.6647 10.5690
-1 1 16 3.4929 -8.1229
-1 1 17 10.1199 8.7491
-1 1 18 6.2897 -12.2582
-1 1 19 -11.5076 11.2563
-1 1 20 -4.1055 0.0258
-1 1 21 -1.3582 -9.2760
-1 1 22 5.2760 -6.5753
-1 1 23 -2.1520 -1.1281
-1 1 24 -0.4327 11.0426
-1 1 25 0.6017 -8.1641
-1 2 1 55.1833 130.5745
-1 2 2 -1.2801 6.3057
-1 2 3 92.7123 -60.0423
-1 2 4 11.7598 -0.2606
-1 2 5 6.2794 10.3932
-1 2 6 -4.3983 8.7836
-1 2 7 -24.9996 -39.4793
-1 2 8 -0.5013 -0.6679
-1 2 9 -11.8984 24.1501
-1 2 10 1.2274 0.2445
-1 2 11 -42.9742 -15.4370
-1 2 12 4.4452 -6.8408
-1 2 13 1.3542 -22.4437
-1 2 14 -1.9611 5.3723
-1 2 15 17.0931 4.2432
-1 2 16 -5.0794 3.3982
-1 2 17 6.6776 15.5645
-1 2 18 0.8650 0.9590
-1 2 19 7.1754 -15.3636
-1 2 20 -0.9096 0.3654
-1 2 21 20.4975 2.5733
-1 2 22 7.0639 -3.6356
-1 2 23 -6.5820 -1.3697
-1 2 24 -2.6285 -7.5082
-1 2 25 5.4352 -8.4027
-1 3 1 20.8452 26.5768
-1 3 2 -28.2836 -5.7724
-1 3 3 -13.6677 20.8966
-1 3 4 0.3020 6.6799
-1 3 5 -0.5044 -4.2576
-1 3 6 -7.9256 2.8115
-1 3 7 9.5599 10.4743
-1 3 8 46.5867 1.1537
-1 3 9 -13.9823 -8.1356
-1 3 10 20.5792 19.4706
-1 3 11 4.5229 6.1778
-1 3 12 -3.5781 0.4141
-1 3 13 8.5451 6.6631
-1 3 14 -9.6839 9.1014
-1 3 15 -0.6770 -5.9875
-1 3 16 1.1155 12.8775
-1 3 17 -3.6648 -3.5191
-1 3 18 -8.9311 9.7748
-1 3 19 0.3064 0.4566
-1 3 20 2.6902 -15.1126
-1 3 21 11.4611 8.6393
-1 3 22 12.6114 -4.4892
-1 3 23 -3.7935 11.0460
-1 3 24 12.0479 2.0770
-1 3 25 1.8019 -0.1048
-1 4 1 -11.7499 -46.4705
-1 4 2 -0.5730 14.4074
-1 4 3 -34.3941 20.9224
-1 4 4 -5.7656 2.2594
-1 4 5 -4.0286 -2.7057
-1 4 6 0.2626 2.0373
-1 4 7 15.0494 19.3366
-1 4 8 4.1096 -1.8573
-1 4 9 2.2911 1.2979
-1 4 10 1.2406 -1.0162
-1 4 11 6.0053 16.1787
-1 4 12 -5.8646 -7.0081
-1 4 13 -0.3377 6.5607
-1 4 14 -0.3716 2.1940
-1 4 15 0.7023 -2.5529
-1 4 16 0.2296 4.6746
-1 4 17 -1.2675 -10.1298
-1 4 18 -0.8866 0.6077
-1 4 19 1.9928 21.8983
-1 4 20 -2.3084 -0.8563
-1 4 21 -2.7492 12.2969
-1 4 22 2.1111 -6.3080
-1 4 23 1.7618 -11.6851
-1 4 24 9.9777 7.4309
-1 4 25 2.8474 -10.1293
-1 5 1 21.4540 -11.9174
-1 5 2 -4.4167 12.6958
-1 5 3 39.8236 1.2107
-1 5 4 9.1642 -25.4401
-1 5 5 -20.2973 18.6563
-1 5 6 3.6743 -33.7024
-1 5 7 0.7011 -5.7526
-1 5 8 32.6957 -22.6996
-1 5 9 10.4539 -6.0636
-1 5 10 -5.8593 -7.1441
-1 5 11 3.3236 -9.2749
-1 5 12 15.4988 11.2791
-1 5 13 -10.9638 -0.8229
-1 5 14 -2.0529 2.2097
-1 5 15 3.9922 -3.8471
-1 5 16 2.1844 4.1241
-1 5 17 2.5351 2.7913
-1 5 18 -5.2539 16.5967
-1 5 19 6.2415 3.4884
-1 5 20 0.5303 -23.5616
-1 5 21 1.8378 -4.1652
-1 5 22 19.0346 6.0899
-1 5 23 6.5739 -1.6389
-1 5 24 4.7325 7.0064
-1 5 25 -2.9361 2.6013
-1 6 1 -8.0412 -8.3308
-1 6 2 1.4209 13.7215
-1 6 3 13.4900 4.2955
-1 6 4 -4.9010 -0.3555
-1 6 5 38.7365 9.5805
-1 6 6 -0.7698 -5.9549
-1 6 7 3.7099 31.2790
-1 6 8 5.8091 -6.5923
-1 6 9 2.1391 12.0452
-1 6 10 3.9261 -2.1712
-1 6 11 10.3152 -14.3798
-1 6 12 -0.0745 2.7059
-1 6 13 -6.7762 22.5764
-1 6 14 1.5406 2.9721
-1 6 15 -0.7451 -4.4480
-1 6 16 -0.2929 2.1306
-1 6 17 28.8361 -0.5624
-1 6 18 -1.1599 7.6553
-1 6 19 11.2360 -0.8422
-1 6 20 1.1796 4.7459
-1 6 21 -4.0024 -5.0260
-1 6 22 6.4803 -1.3346
-1 6 23 5.2242 -2.9258
-1 6 24 -9.3898 2.0782
-1 7 1 0.2126 -1.8255
-1 7 2 -11.2094 -9.3220
-1 7 3 -2.1096 -4.8171
-1 7 4 -5.3479 -5.2408
-1 7 5 21.4771 7.5187
-1 7 6 5.4939 -34.5467
-1 7 7 1.7690 19.6036
-1 7 8 0.9949 -3.3887
-1 7 9 -16.5519 17.9432
-1 7 10 3.5283 5.5003
-1 7 11 -13.9662 6.8018
-1 7 12 -12.0120 1.2886
-1 7 13 -2.8133 14.7902
-1 7 14 13.0157 11.5869
-1 7 15 -4.7860 8.3620
-1 7 16 16.5594 9.5644
-1 7 17 -1.4514 3.3583
-1 7 18 -0.5457 -0.9246
-1 7 19 -1.4895 -4.4507
-1 7 20 6.9064 6.6186
-1 7 21 -8.1079 -9.4719
-1 7 22 1.3633 -1.4077
-1 7 23 13.4086 1.5315
-1 7 24 -2.1265 4.0988
-1 8 1 -17.4200 -83.3665
-1 8 2 -2.0857 4.2395
-1 8 3 4.1776 -8.4999
-1 8 4 -6.8982 4.8414
-1 8 5 9.7199 16.1383
-1 8 6 3.5971 -11.9366
-1 8 7 35.0020 43.3211
-1 8 8 -13.1874 -11.6535
-1 8 9 -13.4941 28.0626
-1 8 10 2.1617 -5.8586
-1 8 11 -20.4653 7.7700
-1 8 12 0.0072 -1.4250
-1 8 13 1.5362 0.5495
-1 8 14 0.4794 -7.4159
-1 8 15 -1.6442 13.0639
-1 8 16 -1.1257 -1.0038
-1 8 17 -1.0500 7.9110
-1 8 18 1.3649 1.6957
-1 8 19 -0.0169 5.5493
-1 8 20 -10.1070 -2.0889
-1 8 21 9.0585 7.3412
-1 8 22 -7.3939 2.2478
-1 8 23 -2.1517 1.7832
-1 8 24 -4.2018 3.8996
-1 9 1 3.7211 -12.6746
-1 9 2 0.2227 5.3591
-1 9 3 -10.6268 -5.4671
-1 9 4 7.9627 13.2531
-1 9 5 11.8258 -2.4364
-1 9 6 8.4454 -9.3524
-1 9 7 -6.7154 0.9799
-1 9 8 6.4950 -15.4721
-1 9 9 -21.2174 -0.9774
-1 9 10 -8.8176 -6.9853
-1 9 11 -11.7440 -1.3048
-1 9 12 -7.3803 -7.2302
-1 9 13 -18.0526 -3.8972
-1 9 14 -14.1498 -15.8628
-1 9 15 3.3011 0.7721
-1 9 16 16.3250 15.6681
-1 9 17 -5.3305 -6.1270
-1 9 18 -3.6315 13.7736
-1 9 19 -7.9518 3.7976
-1 9 20 -6.7689 -3.7532
-1 9 21 -4.4314 -3.4210
-1 9 22 -1.4475 12.0072
-1 9 23 -6.6978 -12.0661
-1 10 1 -9.9326 2.6532
-1 10 2 4.4413 -5.3995
-1 10 3 1.8842 -13.3986
-1 10 4 2.9095 4.7618
-1 10 5 22.1801 -5.9578
-1 10 6 2.2382 1.1360
-1 10 7 5.6888 17.9929
-1 10 8 0.3020 11.2564
-1 10 9 -16.3570 15.9986
-1 10 10 4.2584 -5.6640
-1 10 11 -9.6251 12.0185
-1 10 12 4.8847 6.0417
-1 10 13 -0.8893 17.4058
-1 10 14 1.9229 0.1415
-1 10 15 -32.4202 10.6691
-1 10 16 -0.5258 -6.4347
-1 10 17 -24.9897 -1.0868
-1 10 18 1.3100 -5.4491
-1 10 19 4.3756 -1.6374
-1 10 20 1.9386 -0.1359
-1 10 21 0.2859 9.0418
-1 10 22 4.8282 -3.3511
-1 10 23 -4.2708 18.6621
-1 11 1 10.2616 9.2488
-1 11 2 -24.4887 -1.6137
-1 11 3 -5.5775 -3.1650
-1 11 4 -11.5322 -20.1161
-1 11 5 5.5106 -12.8084
-1 11 6 -10.5200 5.3927
-1 11 7 5.5995 3.9103
-1 11 8 9.6464 8.0123
-1 11 9 3.2501 -6.8491
-1 11 10 10.5588 -1.9044
-1 11 11 1.0392 5.3173
-1 11 12 17.5454 -17.3307
-1 11 13 8.9253 11.0468
-1 11 14 0.6027 -7.2057
-1 11 15 5.5129 0.6516
-1 11 16 12.5916 -13.0467
-1 11 17 10.9684 20.6457
-1 11 18 12.6910 15.7688
-1 11 19 0.3247 4.8309
-1 11 20 0.7993 20.4596
-1 11 21 0.3195 2.1272
-1 11 22 -3.1198 4.6756
-1 12 1 -7.7880 20.7758
-1 12 2 4.0175 -0.5439
-1 12 3 -20.8654 4.6356
-1 12 4 -8.1581 3.2612
-1 12 5 7.4093 -0.6430
-1 12 6 -0.5143 3.4201
-1 12 7 1.4435 19.6794
-1 12 8 -4.3969 -4.4825
-1 12 9 -16.1927 0.2114
-1 12 10 -2.3701 -1.4760
-1 12 11 0.1331 -7.7372
-1 12 12 5.6067 1.2680
-1 12 13 -1.3154 4.1008
-1 12 14 2.5412 5.5292
-1 12 15 -5.8994 1.6330
-1 12 16 -3.4884 -0.4922
-1 12 17 -7.2520 -0.6083
-1 12 18 0.8618 -12.5064
-1 12 19 1.4818 14.0164
-1 12 20 -0.9624 -8.9871
-1 12 21 13.2920 7.0269
-1 12 22 2.3295 -2.9643
-1 13 1 -9.0010 14.7295
-1 13 2 -5.9531 -1.5724
-1 13 3 -8.4454 5.9477
-1 13 4 1.4777 -25.0159
-1 13 5 2.2962 1.4534
-1 13 6 19.7545 13.0621
-1 13 7 -1.2790 -11.9235
-1 13 8 -1.4102 6.7873
-1 13 9 1.4749 10.8611
-1 13 10 13.0846 1.2177
-1 13 11 -5.0938 7.3140
-1 13 12 16.9019 -11.6195
-1 13 13 -7.3479 4.5015
-1 13 14 16.6097 -7.8518
-1 13 15 -2.8533 -2.6182
-1 13 16 13.1493 -8.2663
-1 13 17 6.7011 4.9890
-1 13 18 7.3462 0.7978
-1 13 19 -7.3081 -7.9463
-1 13 20 9.1351 1.5714
-1 13 21 -0.3264 -2.4227
-1 14 1 8.0830 -5.7809
-1 14 2 -3.7824 -5.8967
-1 14 3 -3.6021 4.2217
-1 14 4 0.4557 -1.3034
-1 14 5 0.3106 22.5619
-1 14 6 2.7243 6.8746
-1 14 7 -9.2704 1.5327
-1 14 8 -3.1704 8.3409
-1 14 9 -6.4935 -11.0379
-1 14 10 1.9466 4.7545
-1 14 11 -6.0190 -12.9773
-1 14 12 0.2185 5.3734
-1 14 13 2.4957 -13.7787
-1 14 14 3.4718 0.1834
-1 14 15 6.7900 22.0478
-1 14 16 -0.7671 -0.2403
-1 14 17 8.6945 2.7702
-1 14 18 -4.2092 -5.6628
-1 14 19 15.0310 -12.7319
-1 14 20 -5.7479 6.0564
-1 15 1 -10.0889 -7.1358
-1 15 2 -3.0740 0.3950
-1 15 3 -1.6725 -2.1415
-1 15 4 7.9196 15.2300
-1 15 5 -16.8855 -5.3639
-1 15 6 3.4936 -4.6502
-1 15 7 0.6335 2.1074
-1 15 8 -6.8172 4.2907
-1 15 9 4.2708 4.1764
-1 15 10 0.7850 -5.1102
-1 15 11 -2.4160 5.7187
-1 15 12 -7.8192 16.2666
-1 15 13 -10.1904 5.4181
-1 15 14 7.5377 0.9953
-1 15 15 1.7487 10.3163
-1 15 16 -1.1035 20.8098
-1 15 17 9.7804 -0.6365
-1 15 18 -14.4485 -6.7058
-1 15 19 7.1838 12.4054
-1 15 20 7.3874 -6.3095
-1 16 1 -11.9785 3.6731
-1 16 2 0.3790 -8.7772
-1 16 3 17.2130 -4.7660
-1 16 4 -6.2462 2.3956
-1 16 5 -4.5576 -10.1251
-1 16 6 -7.8673 -7.6135
-1 16 7 -11.3588 16.7634
-1 16 8 13.2461 -0.4259
-1 16 9 -18.2003 12.6992
-1 16 10 5.0457 0.9249
-1 16 11 -19.2869 -1.1764
-1 16 12 3.3337 0.2291
-1 16 13 5.7977 -10.8814
-1 16 14 -0.8124 5.3279
-1 16 15 2.0186 -3.0425
-1 16 16 3.3881 1.8371
-1 16 17 -17.4480 11.2721
-1 16 18 2.0763 12.0265
-1 16 19 -5.5972 -7.0970
-1 17 1 9.4922 11.7293
-1 17 2 18.1943 2.1504
-1 17 3 4.9732 16.8555
-1 17 4 -4.2790 -9.6412
-1 17 5 -10.0224 8.0557
-1 17 6 0.1139 -1.1019
-1 17 7 -5.4992 -10.8455
-1 17 8 -6.8111 -7.2939
-1 17 9 5.8278 6.7110
-1 17 10 6.8796 3.1405
-1 17 11 -9.9865 6.3846
-1 17 12 -6.6292 6.2608
-1 17 13 -1.5000 2.2397
-1 17 14 11.9669 8.5881
-1 17 15 1.1093 -6.7928
-1 17 16 -7.3766 0.3648
-1 17 17 7.2670 -4.2259
-1 17 18 1.4222 -3.7842
-1 18 1 10.9130 -9.4860
-1 18 2 -9.4209 11.9871
-1 18 3 -3.9444 18.4587
-1 18 4 -10.6668 6.9591
-1 18 5 0.3965 3.9596
-1 18 6 1.2788 -0.4118
-1 18 7 0.0993 2.9342
-1 18 8 -1.4641 1.6874
-1 18 9 -10.8635 7.8630
-1 18 10 0.3295 -6.0111
-1 18 11 3.9116 -11.5654
-1 18 12 -2.5668 -1.7814
-1 18 13 -2.0180 4.0190
-1 18 14 1.6934 -11.6818
-1 18 15 -13.4285 15.5739
-1 18 16 6.5944 -0.0999
-1 18 17 -15.7897 -2.2368
-1 19 1 -4.8684 4.8490
-1 19 2 6.9587 1.3412
-1 19 3 7.2433 7.8731
-1 19 4 -9.4669 3.8570
-1 19 5 4.6514 1.6131
-1 19 6 -5.3286 0.4744
-1 19 7 4.5951 2.3699
-1 19 8 1.2342 -8.6347
-1 19 9 1.8714 -3.9135
-1 19 10 5.6213 -12.8471
-1 19 11 5.4282 0.0373
-1 19 12 8.4435 3.7235
-1 19 13 1.2551 -3.4408
-1 19 14 -11.8211 -9.0483
-1 19 15 2.9368 -8.0059
-1 20 1 4.4218 -5.8912
-1 20 2 -0.7266 5.3596
-1 20 3 -2.7718 -7.7000
-1 20 4 -14.4704 -3.0062
-1 20 5 -4.4036 1.5337
-1 20 6 -4.7858 -2.9568
-1 20 7 -4.3090 2.2575
-1 20 8 -8.3822 -1.8849
-1 20 9 -2.1257 -0.2507
-1 20 10 6.9061 1.4054
-1 20 11 -1.6119 0.0314
-1 20 12 6.3874 -1.7601
-1 20 13 0.8715 -0.3754
-1 20 14 4.3101 2.8101
-1 21 1 7.1016 8.9603
-1 21 2 11.3551 8.2220
-1 21 3 -0.3338 3.9569
-1 21 4 0.5238 0.2847
-1 21 5 3.9398 6.3150
-1 21 6 15.0432 -4.4874
-1 21 7 1.8933 -2.2557
-1 21 8 -8.0889 5.4095
-1 21 9 -1.2911 -10.2838
-1 21 10 -2.9785 0.0273
-1 21 11 1.9326 -1.4138
-1 21 12 -4.4328 10.6932
-1 22 1 -10.8026 1.8528
-1 22 2 -2.5865 3.3954
-1 22 3 -0.9191 -3.3943
-1 22 4 -4.9950 8.8730
-1 22 5 -1.9373 -3.5373
-1 22 6 -4.7508 1.0916
-1 22 7 -1.0723 3.6954
-1 22 8 6.3753 1.5221
-1 22 9 -4.4773 -1.9529
-1 22 10 0.4057 2.1803
-1 23 1 -2.7577 4.3654
-1 23 2 2.3230 6.8573
-1 23 3 -2.3732 2.7055
-1 23 4 7.5735 2.3936
-1 23 5 -4.1674 -2.8289
-1 23 6 2.0490 0.5650
-1 23 7 -6.8119 0.6105
-1 24 1 -0.6035 -7.3062
0 0 2 -14.9265 1.8528
0 0 4 -22.2441 -62.6339
0 0 6 -53.5937 21.5538
0 0 8 14.2512 1.7081
0 0 10 0.7457 4.6128
0 0 12 15.7545 1.5968
0 0 14 -4.3038 2.0043
0 0 16 -5.6505 -11.3053
0 0 18 13.8087 -8.6001
0 0 20 10.8461 18.3760
0 0 22 -9.4517 -2.7619
0 0 24 2.1217 -5.2033
0 1 0 -10.3154 0.0032
0 1 1 4.2478 17.7234
0 1 2 -10.2670 7.4998
0 1 3 25.6424 -0.0343
0 1 4 -10.9325 19.8100
0 1 5 -23.3716 2.5549
0 1 6 2.4070 18.1303
0 1 7 -19.0345 -4.0237
0 1 8 -20.7540 12.2039
0 1 9 19.9713 -6.1616
0 1 10 -32.3000 -8.2748
0 1 11 -6.3471 10.5934
0 1 12 0.4960 -9.3711
0 1 13 8.7836 -4.3267
0 1 14 -0.5857 -6.3046
0 1 15 -13.3407 0.4281
0 1 16 11.2262 -9.7745
0 1 17 10.4591 3.2016
0 1 18 13.4360 -1.9744
0 1 19 -8.6338 5.0947
0 1 20 19.4872 -10.3465
0 1 21 0.5934 2.9674
0 1 22 7.3493 6.7657
0 1 23 8.3057 -7.7977
0 1 24 -8.2600 3.0737
0 1 25 -9.6198 5.9515
0 2 0 -88.1794 0.0334
0 2 1 -4.2641 -3.5113
0 2 2 88.8460 137.8611
0 2 3 -7.3758 -9.6763
0 2 4 -9.2164 66.7193
0 2 5 -7.3344 -1.8923
0 2 6 -13.0426 4.1670
0 2 7 5.8030 1.3348
0 2 8 6.4205 -2.3893
0 2 9 -5.1627 -2.8863
0 2 10 -0.7685 11.9688
0 2 11 -0.6789 -1.5813
0 2 12 -5.8214 2.3926
0 2 13 0.6764 2.2427
0 2 14 2.6268 8.7516
0 2 15 -8.4291 0.6556
0 2 16 4.4309 -8.7433
0 2 17 -3.2944 0.9625
0 2 18 15.7653 23.2584
0 2 19 0.0771 -2.1459
0 2 20 -3.5964 7.1720
0 2 21 -11.2439 -8.5918
0 2 22 5.4294 -11.9602
0 2 23 7.7607 -10.3788
0 2 24 12.5851 1.6599
0 2 25 3.2202 0.5916
0 3 0 31.2037 0.0081
0 3 1 -23.5505 20.4106
0 3 2 26.8355 4.6455
0 3 3 -20.9160 8.0176
0 3 4 -8.8117 31.3617
0 3 5 -14.5358 -9.8356
0 3 6 -13.7920 -15.9340
0 3 7 -7.5046 -20.1326
0 3 8 -3.4635 32.3286
0 3 9 -11.7077 3.6736
0 3 10 -40.4679 -8.7802
0 3 11 -4.8262 -6.2104
0 3 12 -6.6880 -15.8170
0 3 13 -7.6573 7.5362
0 3 14 2.4799 9.6834
0 3 15 3.5436 15.5850
0 3 16 4.1578 9.3145
0 3 17 5.1468 6.4085
0 3 18 3.2792 -7.9078
0 3 19 1.3236 -0.3465
0 3 20 6.3441 11.8417
0 3 21 5.4558 -4.1446
0 3 22 -2.1520 -10.9717
0 3 23 -7.5303 10.2236
0 3 24 4.3089 -0.6960
0 3 25 -2.2197 -3.9673
0 4 0 -102.4721 0.2799
0 4 1 -0.3822 -5.4395
0 4 2 -15.8750 -29.9842
0 4 3 4.7466 -8.1505
0 4 4 -24.7873 54.4886
0 4 5 -8.5661 -4.0022
0 4 6 9.6255 3.7217
0 4 7 -2.1456 1.3898
0 4 8 3.9715 -25.2374
0 4 9 -3.1306 4.6257
0 4 10 32.7654 -14.2590
0 4 11 5.5588 -0.5703
0 4 12 -6.6840 32.6528
0 4 13 1.1298 5.4755
0 4 14 -11.6367 -1.8641
0 4 15 -5.3076 -2.7093
0 4 16 -8.7682 -2.8232
0 4 17 0.7130 2.5742
0 4 18 10.0160 5.7302
0 4 19 -5.4428 -0.8976
0 4 20 -35.2085 -2.6805
0 4 21 -4.8405 2.8780
0 4 22 -0.4752 -22.0223
0 4 23 -12.1552 -2.3708
0 4 24 10.2488 2.1348
0 4 25 2.4394 -2.9864
0 5 0 1.0056 0.0025
0 5 1 -22.5308 65.5057
0 5 2 15.4418 15.1617
0 5 3 -42.0078 2.5720
0 5 4 -3.5529 21.0563
0 5 5 -28.1605 -26.6090
0 5 6 6.8707 16.6796
0 5 7 -27.4517 2.0771
0 5 8 -0.9675 14.1150
0 5 9 -8.0632 -19.3861
0 5 10 -15.0288 -4.8958
0 5 11 8.1437 -0.9868
0 5 12 10.2941 1.6612
0 5 13 5.6913 1.7291
0 5 14 -8.0342 -5.5708
0 5 15 8.7949 -10.7010
0 5 16 8.7248 -6.1271
0 5 17 6.8498 -5.0449
0 5 18 5.2492 7.9238
0 5 19 3.9053 5.0298
0 5 20 -11.6640 -16.8305
0 5 21 4.2156 3.2089
0 5 22 5.0245 -5.9068
0 5 23 13.2493 -7.8999
0 5 24 5.9844 -2.7902
0 5 25 9.2833 0.6562
0 6 0 -19.0380 -0.0183
0 6 1 -7.2181 -13.4101
0 6 2 17.9361 19.9532
0 6 3 -3.3403 -2.4528
0 6 4 5.0322 23.8191
0 6 5 -14.4095 1.0556
0 6 6 15.5529 -12.1320
0 6 7 -0.5269 3.7155
0 6 8 -6.9878 2.1045
0 6 9 -4.0588 7.8967
0 6 10 -5.6707 9.2667
0 6 11 4.6511 4.4342
0 6 12 12.2077 4.0819
0 6 13 -6.1439 4.1181
0 6 14 5.6049 29.6736
0 6 15 -1.0804 -1.4731
0 6 16 -0.2955 -7.6270
0 6 17 2.3112 -1.1313
0 6 18 5.2622 0.8706
0 6 19 4.7543 4.3428
0 6 20 -0.9666 15.5714
0 6 21 7.5206 5.7326
0 6 22 3.7568 -11.4435
0 6 23 7.4013 -6.4517
0 6 24 12.3900 4.5382
0 7 0 -13.6245 0.0015
0 7 1 2.2617 18.3124
0 7 2 7.8831 -1.0825
0 7 3 -3.6224 -2.6549
0 7 4 29.4842 -39.6715
0 7 5 -0.2043 -2.2987
0 7 6 8.4636 11.8179
0 7 7 -23.0277 9.0961
0 7 8 -12.3449 17.4270
0 7 9 6.0596 -11.3245
0 7 10 6.8291 1.1739
0 7 11 10.8883 11.2795
0 7 12 5.9419 2.8847
0 7 13 0.0524 9.0666
0 7 14 4.1819 -3.2608
0 7 15 0.5423 2.0070
0 7 16 -4.1241 3.0478
0 7 17 0.1605 -11.5979
0 7 18 -15.3743 4.1366
0 7 19 16.1604 -2.4915
0 7 20 6.3170 2.2025
0 7 21 -13.5128 -11.3703
0 7 22 -2.3781 -5.9992
0 7 23 11.1166 -5.3100
0 7 24 1.3583 -1.7337
0 8 0 46.0887 -0.1572
0 8 1 -10.3894 -0.1887
0 8 2 13.6229 30.5300
0 8 3 -2.7019 2.3182
0 8 4 3.5639 -0.3113
0 8 5 -6.6525 4.7150
0 8 6 11.6228 -6.9561
0 8 7 4.6938 1.6467
0 8 8 13.0484 24.1695
0 8 9 1.4180 4.0713
0 8 10 8.9882 6.5663
0 8 11 0.8442 3.7602
0 8 12 13.0199 -6.2811
0 8 13 3.6774 0.7472
0 8 14 6.0936 7.0518
0 8 15 -0.8481 3.8735
0 8 16 7.0157 20.5237
0 8 17 -1.6325 -8.7248
0 8 18 37.8261 -8.2594
0 8 19 -3.4380 -5.9232
0 8 20 13.7061 10.4300
0 8 21 3.9723 -3.5518
0 8 22 -7.1502 7.0451
0 8 23 -2.6058 9.6576
0 8 24 11.1352 -5.9275
0 9 0 12.7784 0.0097
0 9 1 -3.0239 -6.0174
0 9 2 -8.1207 0.0110
0 9 3 -7.5548 12.8515
0 9 4 -10.9831 5.7010
0 9 5 23.2672 22.7247
0 9 6 15.7255 -0.0566
0 9 7 6.9650 2.8199
0 9 8 -10.0699 7.4815
0 9 9 8.9177 -7.9659
0 9 10 1.5937 -5.5117
0 9 11 -7.5667 -13.2952
0 9 12 -3.5663 -14.4589
0 9 13 -4.4114 -6.4725
0 9 14 0.3597 1.5911
0 9 15 -10.2475 -3.7319
0 9 16 2.8008 -3.0353
0 9 17 2.7534 -8.4426
0 9 18 5.9969 -11.1924
0 9 19 1.1736 -10.0694
0 9 20 0.4774 -7.1221
0 9 21 20.2303 -21.3049
0 9 22 -3.7897 4.2937
0 9 23 -0.8705 -10.2349
0 10 0 23.4813 0.1673
0 10 1 -2.0870 -3.3411
0 10 2 -3.9559 0.3769
0 10 3 -9.2084 -10.0196
0 10 4 23.2517 -22.1742
0 10 5 7.9698 -8.1114
0 10 6 26.2335 5.1837
0 10 7 5.9523 -3.8251
0 10 8 -5.2181 5.0115
0 10 9 0.5655 4.8056
0 10 10 4.4698 1.5825
0 10 11 -5.4783 -1.6019
0 10 12 -15.3364 -0.8227
0 10 13 -0.5527 -1.6987
0 10 14 -9.9603 -10.8452
0 10 15 -2.5740 -5.9510
0 10 16 3.7047 -18.6828
0 10 17 -3.5069 -7.6372
0 10 18 9.1762 2.6660
0 10 19 -4.5902 -2.8419
0 10 20 7.7470 12.8408
0 10 21 -12.9778 -0.5079
0 10 22 1.2235 -5.8153
0 10 23 -0.2280 -8.9332
0 11 0 3.6660 -0.0009
0 11 1 1.7397 0.8868
0 11 2 15.0339 -11.8775
0 11 3 -6.0902 -10.1770
0 11 4 24.4967 -4.7659
0 11 5 15.0961 13.5897
0 11 6 -2.9987 11.1419
0 11 7 -9.3919 20.2256
0 11 8 -4.4784 -8.6969
0 11 9 -7.2376 -22.1497
0 11 10 -18.6214 3.8023
0 11 11 5.6314 -10.9940
0 11 12 5.8596 -14.3022
0 11 13 -10.2372 -3.9567
0 11 14 7.0015 -7.3298
0 11 15 -0.8191 -4.6917
0 11 16 1.4539 1.8229
0 11 17 1.0745 10.7647
0 11 18 -7.1836 2.6355
0 11 19 -8.4994 -1.7671
0 11 20 -3.8154 3.7263
0 11 21 -12.8321 -9.8768
0 11 22 -11.0103 5.2468
0 12 0 1.2875 0.0556
0 12 1 0.1289 0.9458
0 12 2 -13.8439 18.2570
0 12 3 4.0528 0.8495
0 12 4 -8.4130 0.9249
0 12 5 -3.1326 11.9083
0 12 6 4.8025 13.6819
0 12 7 3.8646 7.4374
0 12 8 3.0800 3.4858
0 12 9 4.7972 3.2282
0 12 10 -5.8809 11.4764
0 12 11 -1.9652 8.1069
0 12 12 -5.8923 12.0061
0 12 13 12.0639 -4.8638
0 12 14 1.5318 -5.3364
0 12 15 7.8168 9.2557
0 12 16 11.1976 -3.1354
0 12 17 -10.3247 -0.8103
0 12 18 12.8300 -20.1408
0 12 19 -5.1414 -10.1029
0 12 20 2.1357 1.7545
0 12 21 -0.3112 -13.3051
0 12 22 -4.8704 -4.5274
0 13 0 -17.0099 -0.0294
0 13 1 1.3154 -4.5091
0 13 2 -0.3109 -1.1683
0 13 3 7.6336 -11.9488
0 13 4 12.7081 5.4483
0 13 5 -2.4891 -16.4751
0 13 6 7.8854 10.2842
0 13 7 -5.3660 -14.8879
0 13 8 11.9482 1.9097
0 13 9 -8.5325 -14.9361
0 13 10 12.1350 10.9919
0 13 11 7.9678 4.7946
0 13 12 -20.9450 8.6133
0 13 13 16.1780 -19.0883
0 13 14 5.5727 3.4430
0 13 15 12.2574 9.1586
0 13 16 -9.8154 -4.9451
0 13 17 -7.7895 0.4558
0 13 18 -6.1692 -3.1253
0 13 19 7.1794 -0.9398
0 13 20 -7.4482 -11.2193
0 13 21 10.8426 6.2345
0 14 0 12.5806 -0.1096
0 14 1 -3.5754 -3.3874
0 14 2 7.4126 -4.6642
0 14 3 -1.8681 4.2452
0 14 4 -6.8334 -5.0423
0 14 5 8.8598 -4.7789
0 14 6 -6.7998 6.3110
0 14 7 -3.0987 -4.0073
0 14 8 1.1686 14.6039
0 14 9 -3.1414 -4.4282
0 14 10 8.2500 8.7846
0 14 11 0.8706 3.7021
0 14 12 6.7825 -10.2316
0 14 13 2.2253 -2.1830
0 14 14 3.5446 3.0053
0 14 15 6.3113 10.8351
0 14 16 0.3979 6.7587
0 14 17 -3.7797 -2.5129
0 14 18 4.6097 12.7230
0 14 19 -6.5408 -9.7108
0 14 20 8.5731 18.8593
0 15 0 -5.0422 -0.0151
0 15 1 -10.7661 8.0556
0 15 2 -7.4747 -8.4958
0 15 3 -5.9581 -6.9653
0 15 4 -6.7338 -4.7485
0 15 5 7.0147 -7.7005
0 15 6 -3.0448 7.7185
0 15 7 11.2360 -3.9587
0 15 8 -16.3152 6.1163
0 15 9 6.8537 18.1331
0 15 10 1.4035 -2.3771
0 15 11 -6.4293 0.1002
0 15 12 -4.7194 0.7415
0 15 13 1.1316 3.7210
0 15 14 -6.7086 -23.6662
0 15 15 -1.2496 9.6572
0 15 16 3.2861 5.6744
0 15 17 -4.8323 -6.8058
0 15 18 -9.9249 -1.1958
0 15 19 8.1604 -6.3242
0 15 20 -8.2271 6.6603
0 16 0 8.2837 -0.0674
0 16 1 6.0046 -0.6198
0 16 2 5.0313 -2.5622
0 16 3 0.1149 -5.9721
0 16 4 -5.6414 19.4928
0 16 5 6.5773 -10.0822
0 16 6 -6.9110 10.1263
0 16 7 7.7150 7.2347
0 16 8 -0.8781 -7.7792
0 16 9 5.4124 -4.0495
0 16 10 9.3855 -14.6155
0 16 11 1.8804 -0.3621
0 16 12 19.9715 3.3119
0 16 13 1.3518 -3.8640
0 16 14 10.1636 10.3820
0 16 15 2.1953 6.1782
0 16 16 -7.2758 -8.7321
0 16 17 -8.1686 -4.0132
0 16 18 10.4486 -11.6274
0 16 19 -2.3142 -10.1389
0 17 0 5.8508 0.0105
0 17 1 -22.9362 15.8111
0 17 2 -8.6247 8.8962
0 17 3 -27.5255 -17.9924
0 17 4 12.7438 -4.9276
0 17 5 12.3536 -11.1243
0 17 6 -5.7907 1.0415
0 17 7 -5.8613 12.9180
0 17 8 -15.0398 -22.1548
0 17 9 -10.0754 3.0064
0 17 10 1.9424 -8.1892
0 17 11 -7.9678 1.8267
0 17 12 -5.0838 -4.2845
0 17 13 4.0261 -1.5621
0 17 14 -2.9764 -7.5996
0 17 15 -2.8902 -1.8946
0 17 16 -0.4049 -1.9751
0 17 17 0.0255 3.5185
0 17 18 6.7943 12.8055
0 18 0 6.4611 0.1197
0 18 1 -2.1156 3.9321
0 18 2 4.7173 10.5275
0 18 3 -3.0960 6.3030
0 18 4 8.4588 5.5179
0 18 5 12.9023 5.6103
0 18 6 -2.3676 12.3901
0 18 7 -0.4472 10.2077
0 18 8 -4.5638 10.9089
0 18 9 1.6673 -6.8200
0 18 10 -4.6798 2.8648
0 18 11 0.2342 0.1833
0 18 12 4.4304 -1.7721
0 18 13 -0.3304 3.3986
0 18 14 9.2019 1.4968
0 18 15 -2.7391 -0.9350
0 18 16 0.0954 -11.0372
0 18 17 -6.4741 -5.3168
0 19 0 -6.9276 -0.0213
0 19 1 -22.5853 13.7611
0 19 2 1.4247 -8.8048
0 19 3 2.6946 -9.1435
0 19 4 -2.4575 3.2451
0 19 5 10.1512 -8.0108
0 19 6 -7.3676 8.0667
0 19 7 14.2681 4.1957
0 19 8 -2.8708 3.1940
0 19 9 3.2105 2.3157
0 19 10 6.2813 0.5670
0 19 11 7.7222 -1.3873
0 19 12 -13.2504 7.3730
0 19 13 0.3816 10.3017
0 19 14 -10.4269 -3.9268
0 19 15 1.6325 6.7071
0 20 0 -6.1055 0.0926
0 20 1 7.6545 6.0124
0 20 2 4.4163 3.2059
0 20 3 8.7260 -3.2377
0 20 4 3.2635 8.9206
0 20 5 8.9043 6.0512
0 20 6 3.6657 7.3824
0 20 7 -3.6759 3.9804
0 20 8 4.9422 4.7745
0 20 9 0.7777 6.8630
0 20 10 -0.2507 16.8072
0 20 11 5.6516 -1.8094
0 20 12 4.2676 9.9779
0 20 13 0.2460 -0.9640
0 20 14 1.2291 9.3927
0 21 0 3.5487 0.0080
0 21 1 10.3043 3.6092
0 21 2 -0.9135 2.2477
0 21 3 1.7408 -15.7782
0 21 4 12.3152 8.4223
0 21 5 -5.7957 -0.6431
0 21 6 4.9252 10.7405
0 21 7 -5.4823 -7.8830
0 21 8 -7.8936 -2.1904
0 21 9 4.7414 3.7412
0 21 10 -4.0221 -7.3514
0 21 11 -2.3371 1.7276
0 21 12 4.4920 -4.1704
0 22 0 -4.9126 -0.0229
0 22 1 5.1605 -6.2197
0 22 2 -7.8664 -0.1478
0 22 3 -0.9419 5.4660
0 22 4 1.4927 -9.2247
0 22 5 1.1336 5.7316
0 22 6 4.8378 -13.6558
0 22 7 -1.1010 -1.2113
0 22 8 11.7599 2.5586
0 22 9 0.6255 -9.0200
0 22 10 -0.5512 4.5345
0 23 0 4.9896 0.0068
0 23 1 -3.7335 -9.7225
0 23 2 2.3310 4.8329
0 23 3 11.3851 1.0743
0 23 4 -2.5539 12.7778
0 23 5 0.7418 8.5255
0 23 6 -13.0927 0.2781
0 23 7 -4.6166 -1.3381
0 24 0 5.7104 -0.0409
0 24 1 -2.1273 6.3783
1 0 0 5.3914 -11.1188
1 0 2 -0.3011 -9.0811
1 0 4 2.2901 0.0366
1 0 6 -6.0298 2.5459
1 0 8 -3.0070 -3.1752
1 0 10 -0.8198 0.5556
1 0 12 -2.4640 -5.1349
1 0 14 8.6875 5.4732
1 0 16 -3.2620 7.5166
1 0 18 1.8239 3.8059
1 0 20 7.5765 -4.4702
1 0 22 0.5577 -5.6527
1 0 24 0.1752 -0.3074
1 1 0 15.5862 -1.7557
1 1 1 -3.7080 -6.9749
1 1 2 25.7206 -14.1067
1 1 3 1.2193 -21.8671
1 1 4 -29.0095 9.2177
1 1 5 35.0046 -6.8715
1 1 6 -4.8314 5.4375
1 1 7 10.5834 5.2086
1 1 8 -15.2843 -16.6013
1 1 9 -18.2976 11.2997
1 1 10 -6.8855 -5.8835
1 1 11 15.0638 -5.6218
1 1 12 -10.4642 2.1621
1 1 13 7.9620 10.5697
1 1 14 -7.8871 5.1907
1 1 15 -1.7492 4.2638
1 1 16 8.4786 -11.5225
1 1 17 -3.5918 -12.5296
1 1 18 1.9341 2.7722
1 1 19 -0.5110 -0.8525
1 1 20 -8.5867 -12.5923
1 1 21 9.1508 -1.5055
1 1 22 -6.4429 -10.7073
1 1 23 7.0488 3.0257
1 1 24 -7.2951 -14.0032
1 1 25 -1.3918 3.2788
1 2 0 7.0238 -5.0075
1 2 1 114.1822 -23.9937
1 2 2 -11.7575 -3.1189
1 2 3 200.5866 231.6393
1 2 4 1.8830 3.8510
1 2 5 -71.9213 61.3552
1 2 6 -7.0685 11.0337
1 2 7 -41.6294 -6.7532
1 2 8 -10.7955 -8.2798
1 2 9 -15.0045 -6.9364
1 2 10 0.1139 -4.1515
1 2 11 -2.4701 0.9189
1 2 12 -5.0847 -0.3064
1 2 13 13.5563 -0.7276
1 2 14 -4.4383 11.9739
1 2 15 4.7690 10.4701
1 2 16 -0.1235 -0.3408
1 2 17 -12.9422 5.2713
1 2 18 1.1783 -3.7478
1 2 19 -0.4679 10.2710
1 2 20 -2.1118 2.9863
1 2 21 9.7924 26.1699
1 2 22 -8.0803 -0.2173
1 2 23 -2.9446 2.3954
1 2 24 1.1709 -8.8030
1 2 25 -2.5890 -0.3003
1 3 0 -17.2886 -38.6520
1 3 1 -38.8873 -16.6048
1 3 2 -10.5278 3.5803
1 3 3 -19.2612 -19.8953
1 3 4 -16.6535 -3.9886
1 3 5 -4.9459 -2.3120
1 3 6 -45.1085 -5.8936
1 3 7 -8.3440 35.8594
1 3 8 -14.4236 -3.5559
1 3 9 -15.9571 -19.1672
1 3 10 20.6378 -17.3629
1 3 11 5.0798 -14.3867
1 3 12 8.7917 6.5062
1 3 13 -10.2070 1.7237
1 3 14 -9.5461 -13.6803
1 3 15 2.3610 -3.5729
1 3 16 -1.4530 -6.9145
1 3 17 12.5415 3.0805
1 3 18 -1.6555 5.8275
1 3 19 6.1521 1.1584
1 3 20 -4.2026 9.0727
1 3 21 -2.9463 0.4339
1 3 22 -11.1697 -5.5355
1 3 23 -11.7047 -6.0887
1 3 24 -2.6053 -5.2531
1 3 25 -5.5791 -0.3131
1 4 0 -1.2119 0.9112
1 4 1 43.2961 -20.4845
1 4 2 -4.0657 6.0263
1 4 3 37.3013 -5.6146
1 4 4 -2.1300 -5.5162
1 4 5 -8.4676 37.0074
1 4 6 -11.0295 7.9505
1 4 7 -32.3294 24.5648
1 4 8 -2.6777 -6.0822
1 4 9 -2.5851 7.5869
1 4 10 8.9881 1.8074
1 4 11 -1.2384 8.4884
1 4 12 -3.8823 -0.6505
1 4 13 -5.8167 -1.2363
1 4 14 3.4812 -7.3496
1 4 15 -2.5622 -4.6913
1 4 16 -6.4279 2.1570
1 4 17 6.7710 -8.4613
1 4 18 5.4285 1.3798
1 4 19 -1.2869 -7.0787
1 4 20 -0.1085 -5.8731
1 4 21 -3.7064 2.6812
1 4 22 0.9686 -6.4127
1 4 23 0.6258 10.7530
1 4 24 -1.9507 4.0398
1 4 25 2.1524 0.9792
1 5 0 27.2437 0.1154
1 5 1 15.9094 6.2184
1 5 2 -12.6317 32.8406
1 5 3 -15.5766 15.0343
1 5 4 2.5465 6.3066
1 5 5 10.7050 -7.8178
1 5 6 -3.3923 8.4970
1 5 7 -5.6161 -0.9302
1 5 8 -6.1443 -52.8826
1 5 9 10.4692 -25.5087
1 5 10 16.3411 -20.3572
1 5 11 12.6920 17.7096
1 5 12 -1.7147 -5.6025
1 5 13 -28.1729 -0.0716
1 5 14 9.4862 -12.7763
1 5 15 -0.5905 -5.9628
1 5 16 4.8168 0.5822
1 5 17 -1.9479 -2.6291
1 5 18 -0.1421 -7.8382
1 5 19 -1.2087 3.1133
1 5 20 -4.7664 -6.8822
1 5 21 0.6206 9.7078
1 5 22 -15.3179 -5.4738
1 5 23 -3.2591 -3.8259
1 5 24 -5.4567 -5.8114
1 5 25 1.5769 -3.9463
1 6 0 8.4111 -7.3480
1 6 1 0.6059 3.3095
1 6 2 10.2474 5.3993
1 6 3 -23.0707 -15.8402
1 6 4 -0.8730 3.8975
1 6 5 -0.3321 8.2521
1 6 6 2.2709 -7.9990
1 6 7 -1.1696 7.9491
1 6 8 2.9628 0.1639
1 6 9 -0.7928 -0.0754
1 6 10 -0.6825 0.8820
1 6 11 -7.5966 -19.3855
1 6 12 -2.5479 -4.0161
1 6 13 -9.4552 16.7730
1 6 14 3.9976 -0.5981
1 6 15 -1.9278 -1.1480
1 6 16 -4.2885 -1.9512
1 6 17 -13.1509 -7.5483
1 6 18 -3.3695 -4.1015
1 6 19 5.0208 -9.4295
1 6 20 -5.2513 2.4371
1 6 21 3.3484 -0.0955
1 6 22 1.3132 -1.2344
1 6 23 -4.5830 -9.7063
1 6 24 0.8639 -5.5818
1 7 0 7.5593 2.2658
1 7 1 -16.1498 -10.4097
1 7 2 6.3011 41.8503
1 7 3 -5.2218 -3.9760
1 7 4 -4.9907 -1.2522
1 7 5 -13.6801 -4.7021
1 7 6 -18.8178 -13.4666
1 7 7 -7.0082 13.9760
1 7 8 -17.5579 -17.8964
1 7 9 8.4390 -19.1754
1 7 10 -15.4312 -11.3506
1 7 11 6.3255 -2.1478
1 7 12 2.0261 -24.9008
1 7 13 -1.7452 -0.5741
1 7 14 -2.1937 17.6393
1 7 15 -8.3359 -1.3094
1 7 16 8.5610 -2.3551
1 7 17 2.6814 1.7151
1 7 18 13.9354 4.2460
1 7 19 9.4218 4.1200
1 7 20 -15.4231 11.7152
1 7 21 -10.7905 -0.4550
1 7 22 -3.6807 9.5894
1 7 23 -5.5673 3.9771
1 7 24 -0.5009 9.1974
1 8 0 -3.8656 2.3126
1 8 1 63.6111 -14.8640
1 8 2 -8.1252 1.6117
1 8 3 9.0695 -3.9764
1 8 4 -0.5463 -0.0045
1 8 5 -21.1434 -4.8642
1 8 6 -2.4138 6.2874
1 8 7 -6.3225 -15.0733
1 8 8 1.9806 -5.7155
1 8 9 -5.2441 -8.6751
1 8 10 2.4960 1.9512
1 8 11 6.6193 0.6901
1 8 12 0.7741 0.9761
1 8 13 9.4545 -2.7382
1 8 14 -2.0484 0.5185
1 8 15 -2.5862 12.9906
1 8 16 -0.3911 3.9187
1 8 17 3.5997 16.0032
1 8 18 -3.0611 6.5762
1 8 19 -2.3079 -7.4609
1 8 20 -1.2207 -0.0680
1 8 21 11.8360 2.9781
1 8 22 5.2747 -7.5011
1 8 23 1.8296 8.1905
1 8 24 3.6321 3.6717
1 9 0 4.8262 -15.7638
1 9 1 -0.1958 -2.3007
1 9 2 19.3926 27.2698
1 9 3 -4.2792 -1.3426
1 9 4 -9.9694 10.4969
1 9 5 -3.4157 3.6577
1 9 6 1.3128 1.8523
1 9 7 -15.8727 -5.7808
1 9 8 -15.6427 -16.9935
1 9 9 -6.8445 -2.9493
1 9 10 -0.1113 -1.4786
1 9 11 6.6997 -10.5575
1 9 12 -13.9945 10.2705
1 9 13 14.9730 1.1340
1 9 14 3.5463 -12.4228
1 9 15 8.7164 4.4685
1 9 16 -2.1011 -3.2001
1 9 17 4.9751 -6.4498
1 9 18 6.7227 -6.8078
1 9 19 -5.6524 5.3729
1 9 20 15.9481 -8.3899
1 9 21 5.3580 11.9642
1 9 22 3.1735 1.8588
1 9 23 4.7870 -11.2056
1 10 0 -9.2241 7.3347
1 10 1 -1.0715 -9.7663
1 10 2 0.4026 3.5308
1 10 3 9.9447 7.8751
1 10 4 2.6269 7.6380
1 10 5 35.9064 18.9723
1 10 6 4.7873 -2.5803
1 10 7 6.4877 11.4518
1 10 8 -10.6952 4.5874
1 10 9 8.7978 -5.0082
1 10 10 5.4898 0.1214
1 10 11 -0.4521 0.0741
1 10 12 0.6770 6.4644
1 10 13 -14.6712 19.3844
1 10 14 -5.1327 -3.8895
1 10 15 11.7145 -5.4947
1 10 16 -5.9777 2.0396
1 10 17 6.7258 12.6194
1 10 18 -3.6844 3.2438
1 10 19 2.6230 11.1228
1 10 20 -11.9201 6.0103
1 10 21 3.2255 -9.9942
1 10 22 -2.0370 -5.4447
1 10 23 -6.3478 11.3454
1 11 0 6.2134 -5.8162
1 11 1 -3.2805 10.8236
1 11 2 -0.6772 -1.3498
1 11 3 -8.3665 -9.1284
1 11 4 -14.8839 8.6637
1 11 5 12.3716 3.3937
1 11 6 -13.5978 -10.7537
1 11 7 1.0906 -1.4681
1 11 8 5.4619 32.9508
1 11 9 -2.9274 2.2145
1 11 10 -4.6718 23.8763
1 11 11 3.9797 4.2797
1 11 12 4.1804 -3.7760
1 11 13 9.1408 1.8447
1 11 14 -0.9624 -5.1772
1 11 15 -3.8180 9.0982
1 11 16 7.9570 -8.3762
1 11 17 -19.9031 9.5064
1 11 18 12.7535 -9.2961
1 11 19 -11.9960 -7.4702
1 11 20 7.4286 -1.3270
1 11 21 0.0464 1.9399
1 11 22 9.0243 -1.6615
1 12 0 -0.1105 8.2273
1 12 1 -26.5300 -6.8287
1 12 2 5.8757 -0.9021
1 12 3 -6.7761 -4.8787
1 12 4 1.6948 2.2628
1 12 5 3.3486 1.0371
1 12 6 -1.8010 0.2416
1 12 7 7.6117 5.2039
1 12 8 7.4403 -1.6969
1 12 9 -7.8985 -3.1745
1 12 10 0.6479 -8.4275
1 12 11 11.4223 0.3415
1 12 12 3.6058 -1.6460
1 12 13 0.1021 1.8910
1 12 14 -1.0468 5.2468
1 12 15 0.5253 0.5521
1 12 16 -2.9812 -5.3663
1 12 17 1.1350 6.7585
1 12 18 -3.4066 -4.5110
1 12 19 -11.9609 -6.3426
1 12 20 -4.5364 -7.8939
1 12 21 -1.7051 -10.4266
1 12 22 -5.1787 -9.9783
1 13 0 -2.6505 9.1504
1 13 1 -22.0981 -5.2140
1 13 2 -14.5064 -2.4006
1 13 3 1.4055 -8.2514
1 13 4 -8.1704 -10.1758
1 13 5 20.5285 11.0787
1 13 6 1.9923 -1.9916
1 13 7 13.9521 22.0458
1 13 8 2.3738 4.5981
1 13 9 0.5261 1.1447
1 13 10 -6.5870 -5.3113
1 13 11 7.4185 9.2319
1 13 12 6.7164 -0.3736
1 13 13 4.1507 0.1310
1 13 14 8.9044 -0.7368
1 13 15 9.9607 8.8104
1 13 16 3.4592 -1.0233
1 13 17 -12.7842 12.8897
1 13 18 8.4105 7.2836
1 13 19 -0.8229 -14.1660
1 13 20 2.3062 18.9853
1 13 21 3.5007 -5.0031
1 14 0 -10.6973 2.8878
1 14 1 0.3167 -3.6502
1 14 2 -2.4752 2.6448
1 14 3 -9.2711 4.3524
1 14 4 9.6320 -1.4018
1 14 5 -16.0190 0.1865
1 14 6 -1.1553 4.5658
1 14 7 4.3252 -10.4047
1 14 8 -4.5537 -10.6019
1 14 9 1.9192 -15.4091
1 14 10 -5.5939 -2.6989
1 14 11 7.4617 -8.2863
1 14 12 1.1867 2.5217
1 14 13 -10.6658 -4.0399
1 14 14 3.9248 -2.1023
1 14 15 -22.0587 -4.6400
1 14 16 -0.7178 3.7255
1 14 17 14.5222 8.5221
1 14 18 3.3729 3.0127
1 14 19 2.5073 13.1996
1 14 20 -8.0982 -1.4991
1 15 0 -6.6390 -5.3494
1 15 1 -1.0415 16.6030
1 15 2 3.3262 -4.9920
1 15 3 10.7270 -3.1459
1 15 4 5.2386 -2.6309
1 15 5 8.1280 13.9910
1 15 6 20.4176 11.7409
1 15 7 -10.8477 4.0771
1 15 8 3.3983 -4.4921
1 15 9 1.7295 6.5043
1 15 10 18.9531 -11.4260
1 15 11 -8.1793 1.5082
1 15 12 3.4741 3.8869
1 15 13 -8.8839 2.4097
1 15 14 -7.4731 -1.9865
1 15 15 -11.7910 -0.0129
1 15 16 -5.8298 4.6662
1 15 17 -7.9185 -4.4562
1 15 18 -7.3483 -7.0130
1 15 19 -15.6697 4.4013
1 15 20 4.1848 6.7857
1 16 0 -8.0973 0.5181
1 16 1 -0.3873 -8.2959
1 16 2 5.2662 -3.1150
1 16 3 23.9249 1.1687
1 16 4 6.6146 4.5886
1 16 5 25.8500 -4.8656
1 16 6 5.3143 -5.7693
1 16 7 2.0458 9.8813
1 16 8 10.3665 -0.7870
1 16 9 3.3019 1.2319
1 16 10 -0.6750 4.4679
1 16 11 10.2677 3.2824
1 16 12 8.4963 0.6681
1 16 13 7.9179 2.1108
1 16 14 -2.3786 1.3197
1 16 15 9.4019 -8.9791
1 16 16 8.2168 1.0718
1 16 17 -11.8846 -5.7393
1 16 18 -6.6657 1.7131
1 16 19 -2.0128 -11.2140
1 17 0 10.2054 24.0252
1 17 1 -2.9884 12.5916
1 17 2 7.0923 2.5162
1 17 3 -9.1134 1.7281
1 17 4 0.4794 6.5028
1 17 5 -12.9932 3.3838
1 17 6 -7.1843 -0.0821
1 17 7 -5.4071 -18.8971
1 17 8 -10.3419 -7.4960
1 17 9 -12.8434 0.0110
1 17 10 8.8402 -6.3772
1 17 11 -4.2347 -15.1782
1 17 12 17.4541 2.5689
1 17 13 10.2836 0.6399
1 17 14 2.4342 1.2358
1 17 15 1.4331 5.0107
1 17 16 8.4087 -9.2100
1 17 17 4.0646 4.5243
1 17 18 0.6805 11.7785
1 18 0 7.6859 1.5735
1 18 1 17.4658 -0.1776
1 18 2 1.2088 -3.2895
1 18 3 -15.1972 -15.3003
1 18 4 3.6092 6.5000
1 18 5 -1.1021 -11.2002
1 18 6 -8.5792 1.3829
1 18 7 14.6958 -15.4344
1 18 8 7.7859 2.6698
1 18 9 14.2733 7.2587
1 18 10 -0.4311 -4.3354
1 18 11 10.9664 10.1203
1 18 12 -1.5496 -6.9655
1 18 13 6.0405 7.3085
1 18 14 3.3266 -2.0727
1 18 15 -6.5222 1.1147
1 18 16 -0.1921 0.3358
1 19 0 11.7776 12.8686
1 19 1 -13.7697 -4.8124
1 19 2 -17.2567 10.5834
1 19 3 -0.9124 2.6577
1 19 4 -15.0109 18.7068
1 19 5 4.2301 -8.9715
1 19 6 -28.2361 -12.2227
1 19 7 14.6019 -0.7134
1 19 8 1.7879 2.6260
1 19 9 -2.3606 8.0558
1 19 10 -3.6508 -1.1950
1 19 11 -12.1700 -5.2149
1 19 12 -0.8064 13.1534
1 19 13 5.4005 -3.6124
1 19 14 0.4542 1.1873
1 19 15 1.9610 -6.0198
1 20 0 -2.9516 -3.0506
1 20 1 1.7419 13.1963
1 20 2 -5.9663 8.6713
1 20 3 2.2373 -0.3666
1 20 4 6.1414 2.2920
1 20 5 -14.7093 -2.2184
1 20 6 8.2932 8.4152
1 20 7 -0.7918 -15.4293
1 20 8 1.3397 2.4246
1 20 9 6.0688 -4.1260
1 20 10 -4.3793 12.8053
1 20 11 1.8501 1.7718
1 20 12 -3.5942 -3.5241
1 20 13 -3.7722 11.1861
1 20 14 -2.2091 1.3021
1 21 0 -6.7613 2.4208
1 21 1 -4.3434 12.8756
1 21 2 -3.5224 6.3267
1 21 3 3.8770 -9.4236
1 21 4 -11.3083 5.7963
1 21 5 0.8806 -2.3420
1 21 6 -9.8188 -1.1974
1 21 7 12.5946 -5.1299
1 21 8 7.7252 -4.8959
1 21 9 5.2379 6.1007
1 21 10 1.9157 7.0060
1 21 11 -10.7392 -10.8311
1 21 12 0.9616 0.7360
1 22 0 -5.8502 10.8468
1 22 1 -3.7267 1.1782
1 22 2 -2.1433 -1.4809
1 22 3 1.2228 5.2144
1 22 4 -1.4550 0.2122
1 22 5 7.9876 3.1024
1 22 6 7.2057 2.7045
1 22 7 -2.8926 1.1455
1 22 8 -1.1570 12.0860
1 22 9 5.3750 -0.9771
1 22 10 -0.1714 1.4721
1 23 0 -2.5870 -3.6578
1 23 1 1.4983 -7.5835
1 23 2 4.9643 3.7717
1 23 3 -3.8230 6.8526
1 23 4 -5.3756 9.0444
1 23 5 0.1421 -7.6039
1 23 6 -7.3768 -7.7815
1 23 7 5.4741 -4.2817
1 24 0 -6.6790 1.7091
1 24 1 4.8404 -2.2091
2 0 0 24.9509 175.8898
2 0 2 154.1970 -86.6702
2 0 4 -80.0281 -40.5202
2 0 6 -7.2498 -169.6044
2 0 8 51.0997 -20.1716
2 0 10 33.2677 7.9780
2 0 12 17.8747 8.6677
2 0 14 2.1358 -11.7944
2 0 16 32.4642 -27.7646
2 0 18 24.3498 -23.6762
2 0 20 47.6293 24.8580
2 0 22 -12.5875 -8.4689
2 0 24 0.3159 -7.0975
2 1 0 -9.2975 -1.2150
2 1 1 -10.4709 3.5236
2 1 2 -0.3584 3.8344
2 1 3 13.8755 -0.0605
2 1 4 -8.1552 -9.2553
2 1 5 13.8593 3.7328
2 1 6 22.7623 -2.2001
2 1 7 -16.2532 -27.0119
2 1 8 21.2331 7.0824
2 1 9 -11.0195 -11.0797
2 1 10 -3.3260 -12.1041
2 1 11 -9.8274 -0.0800
2 1 12 -2.0207 8.8142
2 1 13 -9.3771 -5.2573
2 1 14 -4.5091 -4.6140
2 1 15 -1.2731 -9.5543
2 1 16 10.9748 0.5781
2 1 17 0.4820 7.5094
2 1 18 -5.5283 16.7962
2 1 19 0.3765 -10.8270
2 1 20 1.5077 -6.6057
2 1 21 0.4395 -6.6179
2 1 22 2.0086 13.5230
2 1 23 6.8880 2.3549
2 1 24 -5.7401 11.4548
2 1 25 -2.1796 -5.3142
2 2 0 12.7436 -190.1575
2 2 1 -8.4137 1.8917
2 2 2 -9.3778 18.2220
2 2 3 5.8085 -8.1704
2 2 4 -40.0280 0.9901
2 2 5 5.8014 12.3887
2 2 6 4.4372 1.2756
2 2 7 3.5241 6.2490
2 2 8 29.1460 -15.2386
2 2 9 5.6843 -3.6137
2 2 10 8.9038 -15.0155
2 2 11 -1.6706 -4.7749
2 2 12 -1.8128 9.4554
2 2 13 -1.9492 0.5469
2 2 14 -13.6065 5.5230
2 2 15 -4.4183 -5.2414
2 2 16 -8.6657 -4.7310
2 2 17 1.7282 -1.4460
2 2 18 29.8923 -0.1613
2 2 19 0.7290 6.7069
2 2 20 27.0362 19.6218
2 2 21 4.7905 -10.2024
2 2 22 2.3303 21.6358
2 2 23 14.8932 5.1898
2 2 24 5.0972 -4.8391
2 2 25 -0.6578 4.5070
2 3 0 9.5382 26.2705
2 3 1 60.2602 19.8919
2 3 2 17.2764 -1.3989
2 3 3 7.2939 -60.8269
2 3 4 -4.5587 -1.0328
2 3 5 2.0836 4.5798
2 3 6 35.4662 -40.6572
2 3 7 -9.8828 -1.7801
2 3 8 10.8178 11.6264
2 3 9 1.9691 -30.0244
2 3 10 0.6699 19.5359
2 3 11 10.1023 -15.6426
2 3 12 -11.7377 -0.6596
2 3 13 -7.8015 -17.5450
2 3 14 1.7571 -4.6634
2 3 15 -0.8767 -4.6597
2 3 16 12.6498 0.9383
2 3 17 -13.1537 -14.3340
2 3 18 8.1403 -8.2643
2 3 19 10.1023 -7.8460
2 3 20 -7.0597 -3.1860
2 3 21 -2.4739 13.1873
2 3 22 7.9635 3.5150
2 3 23 5.3890 -7.3276
2 3 24 -15.1334 2.3750
2 3 25 4.7928 7.9349
2 4 0 39.7897 -53.9116
2 4 1 -7.6072 9.3236
2 4 2 13.8032 -25.8898
2 4 3 -8.0737 5.2393
2 4 4 73.9733 31.1177
2 4 5 5.1817 12.2851
2 4 6 -21.9060 34.8887
2 4 7 -1.9110 2.0690
2 4 8 -12.6749 -8.9839
2 4 9 -7.3108 3.9790
2 4 10 4.8546 19.7855
2 4 11 -5.1503 -7.1349
2 4 12 -7.2587 19.9869
2 4 13 -3.7492 -1.3552
2 4 14 1.2018 -1.6481
2 4 15 -1.3699 -2.5569
2 4 16 18.7335 -15.0541
2 4 17 3.0975 2.7893
2 4 18 7.0870 3.4761
2 4 19 4.3935 13.0211
2 4 20 4.8971 2.2069
2 4 21 -9.8889 2.1020
2 4 22 1.2430 -1.2057
2 4 23 -11.9461 -9.1730
2 4 24 -0.2585 0.7956
2 4 25 -1.6937 0.2201
2 5 0 8.6104 -4.0434
2 5 1 -21.6405 -9.8911
2 5 2 -6.5713 10.7664
2 5 3 -0.4239 -20.5413
2 5 4 -1.9831 -4.4611
2 5 5 17.3025 -33.1879
2 5 6 0.5517 30.2813
2 5 7 -47.4687 -14.8698
2 5 8 14.6890 28.3908
2 5 9 -5.8536 -10.4776
2 5 10 -22.6870 20.4247
2 5 11 0.3578 -10.8921
2 5 12 -22.9922 -6.5419
2 5 13 14.5868 4.3008
2 5 14 6.2868 -8.5172
2 5 15 11.7619 4.0874
2 5 16 13.9155 10.4554
2 5 17 -4.0319 -17.5719
2 5 18 -9.8779 25.1654
2 5 19 -0.2633 -6.4753
2 5 20 0.7728 -8.5826
2 5 21 2.9986 -7.0533
2 5 22 5.0412 8.2391
2 5 23 11.6505 -5.9863
2 5 24 -1.9513 3.1499
2 6 0 -6.6253 -8.2503
2 6 1 -11.0846 12.2411
2 6 2 -19.3213 32.9251
2 6 3 -0.5284 3.5798
2 6 4 -33.6127 1.2302
2 6 5 3.9971 -3.4641
2 6 6 3.2656 -20.0702
2 6 7 2.1167 4.2070
2 6 8 -13.1556 1.3548
2 6 9 -1.4707 3.3886
2 6 10 -24.8386 -27.4013
2 6 11 -3.3078 -4.8937
2 6 12 5.6492 3.0857
2 6 13 3.7704 -1.3955
2 6 14 -11.8455 13.3399
2 6 15 2.7367 1.4305
2 6 16 7.8034 -0.8796
2 6 17 5.4173 4.1826
2 6 18 18.0743 -21.8953
2 6 19 -0.0695 -0.5455
2 6 20 -8.1623 -8.6146
2 6 21 -9.6944 5.7224
2 6 22 -10.5833 -6.1309
2 6 23 4.9536 9.3041
2 6 24 1.8897 -3.3314
2 7 0 12.5944 -10.3271
2 7 1 29.4698 -8.5649
2 7 2 10.4573 3.8938
2 7 3 4.7872 9.9698
2 7 4 31.6848 29.7272
2 7 5 3.2009 -2.1450
2 7 6 6.6385 8.9111
2 7 7 9.0375 -2.4772
2 7 8 -7.2920 11.6765
2 7 9 3.2351 -1.1466
2 7 10 -13.6987 10.7775
2 7 11 5.7241 -3.4504
2 7 12 1.9691 -12.2650
2 7 13 4.4179 -7.7725
2 7 14 -5.2569 3.5734
2 7 15 5.8042 -1.2257
2 7 16 -4.5086 -10.6287
2 7 17 2.6077 -2.7342
2 7 18 1.1756 -4.4597
2 7 19 -0.3324 2.7426
2 7 20 -3.9776 5.0864
2 7 21 -8.3516 -17.7834
2 7 22 -0.6130 -1.4115
2 7 23 1.2131 -3.0840
2 7 24 -11.3951 0.1851
2 8 0 -12.2581 9.0819
2 8 1 -6.0545 6.2482
2 8 2 -7.7442 9.7768
2 8 3 -5.2128 -3.7496
2 8 4 -5.1870 -7.7045
2 8 5 2.7166 3.8701
2 8 6 -7.5555 -18.1461
2 8 7 -3.6518 5.9188
2 8 8 -9.1568 0.1434
2 8 9 2.8203 -2.1724
2 8 10 -9.1488 3.5459
2 8 11 2.6989 -1.2529
2 8 12 22.9872 1.8972
2 8 13 -3.5844 0.1197
2 8 14 3.3201 -0.1232
2 8 15 -1.9400 -8.5511
2 8 16 -20.3476 -10.7908
2 8 17 7.4972 -4.5268
2 8 18 4.3262 -5.8926
2 8 19 -0.0526 2.8001
2 8 20 19.8008 1.1584
2 8 21 1.7726 -0.1541
2 8 22 -2.5913 9.9551
2 8 23 -3.6461 -1.0465
2 8 24 -0.1638 -3.1368
2 9 0 0.7814 -0.1359
2 9 1 -15.5378 -1.1185
2 9 2 -14.4914 -4.5790
2 9 3 7.6232 -6.5898
2 9 4 14.5911 -32.6713
2 9 5 -18.3323 0.5430
2 9 6 -4.6081 7.1186
2 9 7 36.1949 0.5387
2 9 8 1.6895 6.8796
2 9 9 5.9294 5.6543
2 9 10 9.6111 -0.6649
2 9 11 11.5597 -16.9916
2 9 12 12.1881 -2.6591
2 9 13 2.9646 0.0254
2 9 14 4.8754 -4.0161
2 9 15 0.4854 -5.9395
2 9 16 1.4168 6.2111
2 9 17 8.1383 0.1445
2 9 18 5.4445 12.3804
2 9 19 2.1837 -2.2023
2 9 20 13.6582 3.8158
2 9 21 -6.5708 9.0159
2 9 22 -7.6769 7.8667
2 9 23 -0.2911 -12.6921
2 10 0 -15.1327 8.5844
2 10 1 -6.0526 8.4288
2 10 2 25.8343 -13.5663
2 10 3 -7.4157 -3.7879
2 10 4 36.6404 13.1836
2 10 5 1.8645 -0.6808
2 10 6 14.0718 -4.5224
2 10 7 6.1003 -6.0372
2 10 8 -5.4315 -1.0351
2 10 9 -0.5712 -1.8769
2 10 10 4.8727 -16.4370
2 10 11 7.0216 -3.5010
2 10 12 12.5075 -6.1673
2 10 13 3.0097 0.8831
2 10 14 0.2345 -1.1083
2 10 15 -2.1622 -7.4453
2 10 16 18.3478 -2.2799
2 10 17 0.4452 -1.6027
2 10 18 13.8722 -9.5416
2 10 19 1.1548 4.0979
2 10 20 6.1338 1.4542
2 10 21 -8.2781 5.6630
2 10 22 9.2997 10.9608
2 10 23 7.2391 1.4306
2 11 0 11.1017 9.8386
2 11 1 -3.8280 -7.8178
2 11 2 6.4494 10.7261
2 11 3 13.3575 -1.6357
2 11 4 1.2665 -9.4874
2 11 5 6.0630 8.3561
2 11 6 16.0060 -16.0060
2 11 7 0.1296 -0.3402
2 11 8 -5.3321 -8.6243
2 11 9 -2.8858 4.0799
2 11 10 -2.4387 -3.3876
2 11 11 19.8401 5.2790
2 11 12 -9.0497 -10.0025
2 11 13 -22.3619 8.2723
2 11 14 -5.9429 -12.0239
2 11 15 -9.1000 -4.5439
2 11 16 3.4617 -4.2191
2 11 17 -9.5386 -1.1041
2 11 18 0.0421 -8.7441
2 11 19 4.7152 -3.3313
2 11 20 -1.6619 -5.2107
2 11 21 3.8974 -17.0501
2 11 22 13.6387 -3.0938
2 12 0 -19.8557 0.4523
2 12 1 -4.3318 5.2374
2 12 2 -13.3321 -0.2955
2 12 3 -1.5941 -5.9779
2 12 4 -2.4764 -2.4239
2 12 5 -0.6658 -2.2464
2 12 6 13.6006 17.7409
2 12 7 -6.8544 -2.8847
2 12 8 -4.0934 23.9081
2 12 9 -6.8117 6.1447
2 12 10 -19.9055 -12.3791
2 12 11 -5.9863 -10.7007
2 12 12 6.5738 -8.5701
2 12 13 6.5036 -6.2329
2 12 14 -1.5889 12.6238
2 12 15 7.8392 -1.4121
2 12 16 2.2015 5.1398
2 12 17 -13.0796 -3.0034
2 12 18 12.1534 3.1677
2 12 19 -12.7802 -10.3663
2 12 20 12.1726 -3.3360
2 12 21 6.1582 0.7381
2 12 22 8.6418 -0.0860
2 13 0 4.7045 3.5381
2 13 1 -5.8240 11.4058
2 13 2 7.7319 -2.2287
2 13 3 -5.6572 1.6858
2 13 4 5.2584 3.2343
2 13 5 18.7612 -8.1426
2 13 6 -3.2783 -3.7939
2 13 7 -7.0197 -1.4361
2 13 8 7.3170 2.7117
2 13 9 -4.4428 -19.0347
2 13 10 -18.3458 5.0773
2 13 11 -23.8649 17.3547
2 13 12 -21.2502 -6.2938
2 13 13 4.8423 3.8843
2 13 14 -2.3420 -4.4064
2 13 15 5.4987 6.6738
2 13 16 5.6871 1.6063
2 13 17 7.4404 10.1941
2 13 18 6.0330 6.1393
2 13 19 9.8910 -6.8743
2 13 20 7.3057 -0.8745
2 13 21 -3.6826 6.5569
2 14 0 -14.0222 -4.5642
2 14 1 2.2061 -6.2159
2 14 2 -1.3929 -13.3581
2 14 3 -0.8526 0.4682
2 14 4 2.2682 -17.2752
2 14 5 4.8150 2.4777
2 14 6 0.3887 2.7637
2 14 7 -2.1387 -0.9493
2 14 8 -18.1920 5.1963
2 14 9 -12.5148 -9.6072
2 14 10 -11.6789 -5.1051
2 14 11 -1.7694 -5.0342
2 14 12 -3.7965 -15.9870
2 14 13 3.9778 -10.7361
2 14 14 5.3627 -4.4942
2 14 15 8.2757 -0.6093
2 14 16 -20.6396 -2.5323
2 14 17 -8.6848 12.4087
2 14 18 -29.3991 -4.3318
2 14 19 2.5468 -13.2412
2 14 20 -10.0703 -3.4074
2 15 0 5.9354 -5.5772
2 15 1 0.7394 -4.9352
2 15 2 4.6789 4.4451
2 15 3 -13.8445 -2.8276
2 15 4 -0.0085 1.2500
2 15 5 -11.6344 -2.3167
2 15 6 -6.4684 -1.3952
2 15 7 2.1084 4.2730
2 15 8 -2.9563 4.2068
2 15 9 -0.8640 10.0238
2 15 10 -1.9781 9.8018
2 15 11 -1.0099 6.6356
2 15 12 9.4347 12.4694
2 15 13 -15.6091 -7.0695
2 15 14 7.1629 -2.2305
2 15 15 1.7322 -16.0850
2 15 16 -1.6868 -9.1003
2 15 17 6.2149 1.7749
2 15 18 4.1960 2.4596
2 15 19 -11.6330 9.6282
2 16 0 15.0100 -2.9749
2 16 1 -4.2560 1.0170
2 16 2 0.7111 4.6889
2 16 3 3.5100 6.0053
2 16 4 -0.8953 -13.2020
2 16 5 -2.6947 -10.1422
2 16 6 8.1414 6.0591
2 16 7 5.6315 -0.0000
2 16 8 16.4259 15.2081
2 16 9 0.6432 -11.4514
2 16 10 7.7145 25.1906
2 16 11 7.1956 -9.2319
2 16 12 3.9837 -0.1200
2 16 13 1.0907 1.7036
2 16 14 -0.6868 -5.1599
2 16 15 8.1801 -3.2023
2 16 16 -12.0450 -3.7088
2 16 17 6.2564 -0.6588
2 16 18 1.0655 -6.2836
2 16 19 1.1945 -7.3611
2 17 0 7.6509 6.2793
2 17 1 8.1045 3.2180
2 17 2 8.1607 0.4687
2 17 3 9.7408 -16.4661
2 17 4 2.9615 13.2239
2 17 5 15.0244 10.3002
2 17 6 5.4205 0.2959
2 17 7 12.3288 -2.6862
2 17 8 -3.8113 -0.6340
2 17 9 14.5111 10.9909
2 17 10 -6.3059 -15.8516
2 17 11 0.2453 0.0914
2 17 12 4.0172 -1.2600
2 17 13 3.1338 -5.5062
2 17 14 -12.0000 6.2807
2 17 15 13.0278 -4.0957
2 17 16 -8.7518 0.8004
2 17 17 13.3301 9.8088
2 18 0 11.1770 10.2785
2 18 1 5.5109 3.7961
2 18 2 -19.0877 15.7298
2 18 3 -2.2365 -1.1356
2 18 4 -0.1479 12.9200
2 18 5 5.9722 -1.8147
2 18 6 3.8067 5.9022
2 18 7 -3.3219 -2.7426
2 18 8 8.1293 16.6853
2 18 9 1.0130 -9.5149
2 18 10 0.2326 16.8609
2 18 11 2.7129 5.4628
2 18 12 -2.1789 3.1434
2 18 13 0.4633 3.7510
2 18 14 13.1552 7.5618
2 18 15 1.6978 -0.8050
2 18 16 11.4191 -1.7625
2 19 0 -4.9436 -8.8678
2 19 1 5.2393 1.2464
2 19 2 17.1770 -4.8143
2 19 3 9.5518 12.4604
2 19 4 4.9900 -2.1419
2 19 5 -2.7669 -0.8927
2 19 6 6.7514 -3.6318
2 19 7 4.3066 -2.2740
2 19 8 -16.4924 -5.1450
2 19 9 2.6011 3.2581
2 19 10 -11.4711 0.7410
2 19 11 -6.1809 8.5002
2 19 12 1.0140 -4.2500
2 19 13 4.0351 -7.2956
2 19 14 3.2426 -4.5755
2 19 15 14.6051 -2.6988
2 20 0 -0.3798 3.4555
2 20 1 10.3211 -8.0254
2 20 2 16.4359 -4.6349
2 20 3 7.5136 7.5056
2 20 4 12.5744 -15.6879
2 20 5 -1.4656 -3.1310
2 20 6 5.9567 1.3353
2 20 7 -0.0377 3.6599
2 20 8 -1.2827 -11.5210
2 20 9 -6.1498 -4.5054
2 20 10 -13.0627 -5.9509
2 20 11 6.4054 -1.9223
2 20 12 -12.8172 -3.3864
2 20 13 -5.6387 5.3132
2 20 14 2.8748 -8.3586
2 21 0 -2.2776 -11.4969
2 21 1 7.0757 6.9523
2 21 2 -4.2284 -16.2219
2 21 3 -7.6895 11.1772
2 21 4 -2.8670 -3.8742
2 21 5 -1.6531 -8.4304
2 21 6 -7.0061 -0.5931
2 21 7 -2.1117 -13.2938
2 21 8 7.6958 -4.1786
2 21 9 6.0009 2.5338
2 21 10 10.6412 -5.4237
2 21 11 -8.6132 1.2749
2 21 12 -6.7845 -0.4941
2 22 0 11.0878 -2.9940
2 22 1 4.8765 -3.4589
2 22 2 -3.7376 5.5441
2 22 3 -0.0905 0.0630
2 22 4 10.1652 1.8697
2 22 5 -2.2428 -2.5253
2 22 6 15.3477 15.8761
2 22 7 2.2536 7.9341
2 22 8 -13.8301 8.4096
2 22 9 -7.3091 1.3320
2 22 10 4.4444 -6.3471
2 23 0 -10.3230 1.9898
2 23 1 5.3937 4.7745
2 23 2 -8.2506 1.6923
2 23 3 -4.0424 6.3262
2 23 4 -7.1211 -6.6957
2 23 5 -5.3454 -5.2933
2 23 6 7.2822 -6.7830
2 23 7 5.2955 -3.3557
3 0 0 7.2815 0.1202
3 0 2 7.9651 9.1091
3 0 4 0.3767 7.4583
3 0 6 7.1752 0.9250
3 0 8 -5.8250 -2.4800
3 0 10 4.8176 -12.8627
3 0 12 9.2820 -0.4385
3 0 14 3.0976 -2.4708
3 0 16 -1.7557 2.8509
3 0 18 2.4433 -4.5447
3 0 20 -2.2330 -5.8080
3 0 22 -10.5269 -7.3686
3 0 24 -5.5473 12.9334
3 1 0 4.7225 -0.6384
3 1 1 14.4975 14.8651
3 1 2 -42.9106 -7.8107
3 1 3 3.6217 15.3900
3 1 4 -7.3887 -20.8928
3 1 5 -14.3216 19.6986
3 1 6 -19.1157 28.9276
3 1 7 -7.3825 8.2681
3 1 8 -14.3830 4.5561
3 1 9 1.7839 -0.6699
3 1 10 -5.4664 -0.5907
3 1 11 3.7094 -10.1265
3 1 12 -12.9605 3.5782
3 1 13 -4.9727 -0.7786
3 1 14 -10.9197 -2.2287
3 1 15 -18.4431 2.5240
3 1 16 4.3405 1.0698
3 1 17 2.3795 5.3975
3 1 18 1.7557 1.9175
3 1 19 -1.2320 9.5957
3 1 20 0.4754 3.2593
3 1 21 -5.6841 6.3101
3 1 22 5.4085 -4.7837
3 1 23 -17.2931 3.9803
3 1 24 4.2924 4.6478
3 1 25 0.6091 -1.1990
3 2 0 -4.3181 -6.0618
3 2 1 -37.9040 10.1057
3 2 2 4.0842 2.3190
3 2 3 -46.7098 39.8634
3 2 4 -4.1402 1.8715
3 2 5 -21.7801 -13.7867
3 2 6 1.7507 -2.5101
3 2 7 -29.2219 -91.4257
3 2 8 -5.0370 -6.6907
3 2 9 48.4765 -27.3862
3 2 10 3.2269 -3.4218
3 2 11 19.4624 0.2942
3 2 12 -0.9865 5.1461
3 2 13 17.8669 16.8384
3 2 14 -3.1020 -4.6228
3 2 15 8.9118 5.7252
3 2 16 12.0580 7.0495
3 2 17 20.0607 -11.3860
3 2 18 0.6181 -17.7023
3 2 19 -20.5304 -6.8294
3 2 20 0.8324 -9.1689
3 2 21 3.8458 -13.2785
3 2 22 4.6366 -13.8293
3 2 23 6.4058 6.4160
3 2 24 10.3609 -7.7110
3 2 25 -1.2755 -3.1568
3 3 0 32.8508 27.7423
3 3 1 -17.4550 7.0902
3 3 2 -1.3662 15.2266
3 3 3 9.3400 -2.5177
3 3 4 0.0327 -9.1783
3 3 5 2.5528 1.0962
3 3 6 15.7965 11.7429
3 3 7 1.4530 -15.3124
3 3 8 -13.6402 10.0418
3 3 9 15.0267 -29.5914
3 3 10 -0.1512 -1.7821
3 3 11 18.0852 -0.6812
3 3 12 13.2643 2.5812
3 3 13 18.3894 -6.7546
3 3 14 10.6326 -6.8793
3 3 15 14.9751 8.0386
3 3 16 0.3896 -14.3307
3 3 17 -14.9775 5.5943
3 3 18 7.4247 5.3038
3 3 19 -1.7950 -5.5975
3 3 20 -5.4960 10.8034
3 3 21 -0.6929 6.0854
3 3 22 -2.8860 5.3629
3 3 23 -0.9072 -1.5392
3 3 24 -3.1028 3.9591
3 3 25 0.9054 0.0194
3 4 0 -8.0712 -11.9301
3 4 1 -4.7766 -75.0348
3 4 2 2.2260 2.6589
3 4 3 78.8458 -70.3359
3 4 4 -6.3127 -0.9264
3 4 5 16.8213 -2.7111
3 4 6 -1.6683 6.8506
3 4 7 8.6751 12.5329
3 4 8 1.7784 5.8753
3 4 9 5.3639 0.7681
3 4 10 4.9046 -0.5775
3 4 11 15.9580 6.1567
3 4 12 0.7829 -4.0376
3 4 13 11.6310 -22.3493
3 4 14 10.3664 -2.9648
3 4 15 19.7069 -7.5705
3 4 16 -9.6573 -7.1825
3 4 17 -8.8354 15.3115
3 4 18 -6.4230 -12.8342
3 4 19 -10.0327 13.3378
3 4 20 8.2092 -0.0061
3 4 21 14.0829 -1.1735
3 4 22 -6.1575 -0.3136
3 4 23 7.6585 16.3317
3 4 24 -1.4524 -8.4317
3 4 25 -7.2484 -0.2584
3 5 0 -10.9034 57.0270
3 5 1 5.3840 23.9921
3 5 2 6.1824 21.6504
3 5 3 10.1807 -10.3835
3 5 4 -13.9794 18.5066
3 5 5 15.0648 8.6266
3 5 6 -14.5338 4.7092
3 5 7 16.7999 -2.8851
3 5 8 17.3223 5.6519
3 5 9 25.1266 19.5046
3 5 10 -0.5517 5.9720
3 5 11 -14.9094 2.6111
3 5 12 8.3930 -6.9286
3 5 13 -18.9806 -6.7032
3 5 14 16.0966 1.3006
3 5 15 -6.8366 6.8182
3 5 16 -1.4226 -1.9017
3 5 17 6.2845 7.5501
3 5 18 2.6133 -7.1451
3 5 19 -2.6773 5.0356
3 5 20 -4.7929 -16.1476
3 5 21 -7.1454 2.4147
3 5 22 3.5174 -2.0502
3 5 23 2.1934 -2.2575
3 5 24 4.6657 -12.0497
3 6 0 -3.8368 8.0442
3 6 1 11.9773 6.4426
3 6 2 1.3672 11.0622
3 6 3 11.6796 -20.2206
3 6 4 -3.5543 5.3398
3 6 5 36.4994 -4.7182
3 6 6 5.8136 11.5614
3 6 7 2.1695 15.8780
3 6 8 -7.5847 1.0352
3 6 9 3.4626 8.0025
3 6 10 1.7519 -6.7131
3 6 11 12.6913 -34.4931
3 6 12 -2.7327 1.2334
3 6 13 0.3438 -1.4511
3 6 14 -5.6522 4.3836
3 6 15 12.6652 24.3038
3 6 16 -0.4410 -2.7643
3 6 17 21.2023 0.6035
3 6 18 -3.7539 -7.9458
3 6 19 9.3411 9.4839
3 6 20 3.3758 -2.8573
3 6 21 -10.7012 -1.0640
3 6 22 -2.4298 -4.5898
3 6 23 8.2386 -7.8389
3 6 24 -3.6389 -7.7326
3 7 0 -13.0388 9.4334
3 7 1 -1.5404 0.4231
3 7 2 11.7761 9.9415
3 7 3 0.1497 24.4730
3 7 4 8.1600 48.3044
3 7 5 -9.1410 -5.4969
3 7 6 6.0049 -20.9692
3 7 7 1.9884 11.9364
3 7 8 -27.9083 14.1569
3 7 9 -11.5359 12.8431
3 7 10 -8.3885 -27.4374
3 7 11 -6.3832 6.8602
3 7 12 4.4958 3.5373
3 7 13 -10.9095 -5.2200
3 7 14 -20.2810 -10.3224
3 7 15 -5.6522 -10.1520
3 7 16 7.6673 -5.3698
3 7 17 -15.5653 4.9189
3 7 18 -6.7945 -5.6970
3 7 19 -7.5067 -5.0242
3 7 20 0.2857 -14.5316
3 7 21 -10.1765 -7.1722
3 7 22 -5.4046 -10.0825
3 7 23 1.2001 -1.1346
3 7 24 -1.9438 6.2977
3 8 0 2.0726 1.4432
3 8 1 -16.3352 -15.7148
3 8 2 -1.2140 -3.9457
3 8 3 15.0411 -7.3953
3 8 4 7.7507 5.4707
3 8 5 -22.9163 -2.8245
3 8 6 -5.6362 -7.1763
3 8 7 7.4360 -20.1260
3 8 8 2.1581 0.4917
3 8 9 6.4257 -20.9119
3 8 10 -3.0373 -1.1624
3 8 11 -10.0599 -6.9217
3 8 12 5.5285 3.3373
3 8 13 5.7149 -2.4445
3 8 14 -9.0566 -2.9096
3 8 15 -2.9968 -5.2343
3 8 16 -4.1489 1.2060
3 8 17 -8.4580 1.1913
3 8 18 -4.6533 0.2286
3 8 19 -2.6043 -2.4206
3 8 20 2.2227 -8.0968
3 8 21 -1.8611 -8.1676
3 8 22 -7.2256 -1.6432
3 8 23 -4.5774 -8.9610
3 9 0 0.1272 3.6536
3 9 1 -14.0565 16.0442
3 9 2 12.7525 14.1707
3 9 3 -21.5023 12.1738
3 9 4 9.3459 34.9742
3 9 5 -24.2830 -3.7312
3 9 6 -2.9713 29.7946
3 9 7 -10.7981 -18.0493
3 9 8 0.7668 7.3075
3 9 9 1.3150 -1.2865
3 9 10 -0.7802 1.3514
3 9 11 -5.2617 -3.6808
3 9 12 -13.4660 -6.9458
3 9 13 -14.1119 5.0377
3 9 14 11.3852 -13.2919
3 9 15 1.1987 9.4833
3 9 16 17.5310 1.0778
3 9 17 -3.0775 1.5771
3 9 18 2.4372 -5.6571
3 9 19 -13.8203 0.1410
3 9 20 -7.3249 1.1179
3 9 21 3.8253 5.3224
3 9 22 -9.9796 -0.1242
3 9 23 1.1864 8.1425
3 10 0 0.8089 -0.8435
3 10 1 -8.3899 -23.6792
3 10 2 2.7332 -2.3786
3 10 3 -8.0493 -10.0475
3 10 4 -2.6096 -2.8043
3 10 5 -7.1649 9.5199
3 10 6 -3.2609 -10.2526
3 10 7 -20.9397 -3.7517
3 10 8 1.1357 3.1151
3 10 9 0.7141 1.4847
3 10 10 -4.3272 -0.2999
3 10 11 -1.4462 9.2369
3 10 12 4.1603 -0.9258
3 10 13 -15.5589 5.5056
3 10 14 2.9123 4.1144
3 10 15 -3.6834 -4.0926
3 10 16 -6.6162 -0.4633
3 10 17 8.4113 -5.3764
3 10 18 1.9631 -6.1864
3 10 19 -13.7742 8.8660
3 10 20 1.4615 1.4942
3 10 21 -9.9102 -18.1816
3 10 22 1.8362 -4.0048
3 10 23 -8.9234 -3.8321
3 11 0 2.3622 0.8321
3 11 1 -19.7594 0.0143
3 11 2 15.2680 9.8053
3 11 3 -3.0729 0.1276
3 11 4 2.2626 -11.8378
3 11 5 -8.7147 -9.8214
3 11 6 0.5623 7.7124
3 11 7 12.0734 -12.1407
3 11 8 -24.6962 -3.8531
3 11 9 -0.4164 0.4449
3 11 10 -1.8915 5.3930
3 11 11 -1.9205 12.4060
3 11 12 6.4041 7.1749
3 11 13 13.5886 0.1474
3 11 14 5.5201 -11.0204
3 11 15 -12.0355 3.1403
3 11 16 9.3259 -5.0265
3 11 17 -17.9746 -8.0491
3 11 18 5.9257 6.2678
3 11 19 12.5441 -7.2355
3 11 20 0.3141 5.7701
3 11 21 5.3232 7.7900
3 11 22 -1.8115 -2.2858
3 12 0 2.9456 3.3184
3 12 1 -11.9349 -5.4174
3 12 2 8.1097 0.5137
3 12 3 -27.0565 4.7891
3 12 4 1.9822 -4.6579
3 12 5 -2.9889 1.6257
3 12 6 -1.7976 -7.6433
3 12 7 0.3508 6.9679
3 12 8 0.4719 -2.3951
3 12 9 -16.5452 -10.0332
3 12 10 14.4239 6.7078
3 12 11 -12.5935 -7.5553
3 12 12 6.7569 2.1811
3 12 13 6.8760 -7.9710
3 12 14 -1.2291 0.7935
3 12 15 -18.4556 14.8412
3 12 16 -1.9660 0.6090
3 12 17 0.9413 8.6250
3 12 18 -7.9924 -9.2120
3 12 19 9.1131 7.5544
3 12 20 6.8534 -13.3438
3 12 21 0.7888 3.7786
3 13 0 -23.6707 1.0521
3 13 1 -0.0727 -2.3832
3 13 2 -2.4770 -9.9151
3 13 3 1.2202 -4.2671
3 13 4 4.2531 -4.4084
3 13 5 9.3877 9.5825
3 13 6 2.5152 -5.0751
3 13 7 -2.2689 8.3443
3 13 8 -0.5004 -6.1295
3 13 9 2.8407 8.8173
3 13 10 15.6987 -11.0052
3 13 11 -0.4250 -2.2077
3 13 12 13.8984 -24.9237
3 13 13 1.6504 -4.7790
3 13 14 -0.5756 2.8861
3 13 15 -7.6644 6.4965
3 13 16 -0.3305 -4.3569
3 13 17 -3.5312 -5.3371
3 13 18 -4.0056 0.6300
3 13 19 15.2782 12.6169
3 13 20 -8.1559 -10.0124
3 13 21 11.2567 8.3371
3 14 0 -0.5646 -3.2019
3 14 1 -9.9243 12.7300
3 14 2 5.6365 -0.2889
3 14 3 -25.9837 15.7906
3 14 4 2.3767 7.3813
3 14 5 -29.6645 -0.6629
3 14 6 1.8514 -1.4899
3 14 7 -2.0855 1.1183
3 14 8 2.0294 -2.7960
3 14 9 13.3962 -5.3872
3 14 10 1.1066 -2.9362
3 14 11 0.4223 -3.7889
3 14 12 -0.2849 2.8619
3 14 13 6.8913 -17.2012
3 14 14 5.3378 -5.3283
3 14 15 -1.0948 -15.7715
3 14 16 -2.2292 -8.2484
3 14 17 -3.8096 4.7817
3 14 18 -10.3381 6.0718
3 14 19 -13.9815 -4.5412
3 14 20 -14.9021 -3.2887
3 15 0 -15.1452 -1.5098
3 15 1 -10.8154 -1.7328
3 15 2 -31.8440 -8.1252
3 15 3 9.7826 -3.7267
3 15 4 5.0956 9.4380
3 15 5 8.8389 -0.5031
3 15 6 -14.9540 8.6877
3 15 7 -8.3151 2.3805
3 15 8 13.8010 -12.0542
3 15 9 -2.8878 -10.7232
3 15 10 -11.8367 -10.8692
3 15 11 4.2948 -12.3216
3 15 12 1.0420 -9.3908
3 15 13 8.6033 -2.4530
3 15 14 2.8722 -18.4909
3 15 15 -4.0112 -2.4159
3 15 16 -3.3198 -15.9956
3 15 17 12.3850 -1.0803
3 15 18 7.3606 -7.1441
3 15 19 -4.0301 10.1985
3 16 0 1.9694 -1.7120
3 16 1 14.4659 -9.9673
3 16 2 -2.1900 -2.8578
3 16 3 19.4827 15.8091
3 16 4 -5.8269 -2.6853
3 16 5 -2.4144 14.2427
3 16 6 -7.9146 -0.9696
3 16 7 -7.1680 -22.1201
3 16 8 -2.6737 -7.9415
3 16 9 7.2797 -11.3184
3 16 10 -3.2503 -1.3050
3 16 11 -5.1787 5.8830
3 16 12 -2.3770 -0.1627
3 16 13 -15.5627 1.0839
3 16 14 5.3729 0.6466
3 16 15 6.3085 -11.3588
3 16 16 1.7799 4.1432
3 16 17 1.1196 -15.7394
3 16 18 8.6732 2.2353
3 17 0 -7.3495 9.4656
3 17 1 -0.0325 -1.9337
3 17 2 21.2951 -4.2682
3 17 3 1.2147 6.5235
3 17 4 0.4256 -11.0570
3 17 5 4.1671 7.4649
3 17 6 2.8788 4.3199
3 17 7 0.9842 -0.9251
3 17 8 -4.5496 3.7435
3 17 9 1.8684 -14.0715
3 17 10 7.1719 8.9479
3 17 11 8.1233 5.2832
3 17 12 5.2534 5.3657
3 17 13 -0.3815 14.6288
3 17 14 3.0067 6.3306
3 17 15 -3.3635 5.2073
3 17 16 -2.6104 -8.7479
3 17 17 0.5351 0.9654
3 18 0 -4.2564 -3.0468
3 18 1 21.8539 -5.9538
3 18 2 -2.0152 5.4472
3 18 3 17.5076 -0.1788
3 18 4 -6.8620 4.9767
3 18 5 -3.4044 4.2398
3 18 6 -3.7054 -6.0533
3 18 7 -11.6430 5.7118
3 18 8 -2.3726 -4.8626
3 18 9 -10.9287 5.2066
3 18 10 11.9240 -5.8780
3 18 11 0.9787 23.7219
3 18 12 7.6839 -0.9516
3 18 13 -10.0062 19.9466
3 18 14 1.8433 2.0626
3 18 15 -9.6255 -3.3988
3 18 16 -4.5986 0.2889
3 19 0 10.0853 4.3421
3 19 1 4.4962 -1.7931
3 19 2 0.9457 -6.6854
3 19 3 -0.3049 2.5487
3 19 4 0.2778 10.0980
3 19 5 -0.0457 7.4058
3 19 6 10.1579 1.4122
3 19 7 -8.1364 2.1003
3 19 8 12.3856 22.2481
3 19 9 -1.1988 -3.2520
3 19 10 -3.3325 17.3742
3 19 11 -12.9532 -3.3809
3 19 12 0.3687 -3.6246
3 19 13 0.1394 -0.6300
3 19 14 0.3390 7.6896
3 19 15 3.8857 -4.9217
3 20 0 1.2145 -9.4879
3 20 1 -9.0708 -6.1614
3 20 2 1.3311 -3.0535
3 20 3 5.5965 2.1118
3 20 4 1.5539 5.3852
3 20 5 -3.3651 -1.9351
3 20 6 3.2419 6.2214
3 20 7 -9.4979 -8.9860
3 20 8 4.2182 0.6972
3 20 9 5.5208 -24.7033
3 20 10 -8.0612 -0.5445
3 20 11 10.5118 7.1634
3 20 12 -1.2647 -3.3137
3 20 13 -15.9782 9.7583
3 21 0 -10.2074 -12.7762
3 21 1 -8.7835 3.4791
3 21 2 9.6192 1.3172
3 21 3 -4.6568 6.6096
3 21 4 14.0172 0.5867
3 21 5 -3.2369 3.3509
3 21 6 4.8838 9.1416
3 21 7 8.3448 -2.7012
3 21 8 -2.2510 13.8444
3 21 9 1.9059 2.7660
3 21 10 -5.8511 -1.9767
3 21 11 5.9863 -1.5273
3 21 12 0.1878 4.0380
3 22 0 -6.2358 1.7711
3 22 1 7.3173 -7.2281
3 22 2 -4.9738 -1.8649
3 22 3 5.6494 -1.2254
3 22 4 3.4778 -9.0212
3 22 5 1.9417 2.2416
3 22 6 1.0727 5.2227
3 22 7 -4.8764 -7.8234
3 22 8 -9.6122 -1.1400
3 22 9 -0.2067 -9.5308
3 23 0 4.4246 3.6368
3 23 1 7.3752 3.8170
3 23 2 -1.9672 8.9707
3 23 3 -2.9445 -8.0219
3 23 4 -1.9642 10.1682
3 23 5 8.1270 -2.6449
3 23 6 6.1676 6.2297
4 0 0 -32.3929 2.5732
4 0 2 117.4394 114.4209
4 0 4 -41.4556 41.6084
4 0 6 2.4520 -6.7451
4 0 8 31.5805 19.1810
4 0 10 -22.9816 28.4598
4 0 12 -4.0659 4.2640
4 0 14 -21.8512 -11.1090
4 0 16 -1.4350 -7.1764
4 0 18 -5.3140 -19.9159
4 0 20 5.6747 4.1330
4 0 22 14.7037 -4.4922
4 0 24 -7.2625 -1.3165
4 1 0 7.1003 -19.6489
4 1 1 0.5465 -39.3722
4 1 2 22.3490 -31.4338
4 1 3 16.2143 -18.4897
4 1 4 49.9024 1.1898
4 1 5 -13.9409 -29.5062
4 1 6 -7.8265 -3.7322
4 1 7 15.6525 3.5398
4 1 8 17.6174 -5.0874
4 1 9 2.4116 -7.1724
4 1 10 9.5381 11.1879
4 1 11 7.4833 -19.5140
4 1 12 -12.0016 7.5236
4 1 13 -9.9993 1.0972
4 1 14 -2.1329 5.3732
4 1 15 -2.5426 -1.6786
4 1 16 -0.1809 -5.8702
4 1 17 -8.3959 5.4171
4 1 18 -8.7644 -17.5166
4 1 19 -9.0124 -7.2910
4 1 20 7.4109 -15.9627
4 1 21 4.7988 5.3772
4 1 22 7.9860 -2.3430
4 1 23 -11.3144 -11.9660
4 1 24 3.5413 8.3213
4 1 25 8.5221 -1.7097
4 2 0 4.3099 -5.4302
4 2 1 9.1973 2.7781
4 2 2 -19.1434 -21.4267
4 2 3 6.3214 3.5027
4 2 4 18.1970 13.8675
4 2 5 4.9085 0.1792
4 2 6 -35.3335 29.7608
4 2 7 7.0251 -4.6615
4 2 8 -0.4911 17.2997
4 2 9 9.1136 1.7260
4 2 10 7.0329 3.1898
4 2 11 -5.0537 3.5249
4 2 12 -9.4582 2.4188
4 2 13 2.6040 -4.3205
4 2 14 -1.4437 4.9659
4 2 15 1.4620 -1.7630
4 2 16 -23.4001 -15.7602
4 2 17 1.7898 2.1761
4 2 18 -2.3609 4.0729
4 2 19 4.6494 3.8727
4 2 20 10.1188 -5.5465
4 2 21 3.7219 4.3916
4 2 22 0.6262 13.5793
4 2 23 -11.1229 3.0435
4 2 24 -7.5062 7.6124
4 2 25 -0.1629 2.8234
4 3 0 -2.7854 19.6283
4 3 1 22.7177 -0.5522
4 3 2 22.2170 -4.7863
4 3 3 44.1845 7.7846
4 3 4 3.2978 7.9973
4 3 5 -11.4719 2.8333
4 3 6 34.5183 -12.2350
4 3 7 8.1792 18.0865
4 3 8 22.5762 -10.6504
4 3 9 -19.9934 25.6698
4 3 10 -7.1187 18.8735
4 3 11 -14.7765 -6.2656
4 3 12 -8.9267 -4.4526
4 3 13 1.3375 -20.8830
4 3 14 3.2967 0.8780
4 3 15 1.5553 4.5652
4 3 16 11.0694 -2.7025
4 3 17 -4.3673 13.3765
4 3 18 22.3342 7.1319
4 3 19 -14.3282 1.9705
4 3 20 -4.3485 -9.2647
4 3 21 -8.9701 -6.0639
4 3 22 9.6317 -9.5729
4 3 23 -1.8155 -3.3044
4 3 24 12.4261 -0.2024
4 3 25 1.8144 3.1012
4 4 0 -44.6433 12.4648
4 4 1 1.0347 -3.9480
4 4 2 -65.3975 -99.3740
4 4 3 -1.2953 -8.0089
4 4 4 2.0299 -3.2740
4 4 5 7.3315 -0.8907
4 4 6 7.1595 4.6786
4 4 7 0.1721 -9.8838
4 4 8 -17.1207 -9.7717
4 4 9 4.7230 -5.5071
4 4 10 -37.0957 -11.8802
4 4 11 -7.8883 9.0644
4 4 12 -16.7948 -16.3144
4 4 13 2.6428 -6.9079
4 4 14 13.6871 15.4179
4 4 15 -3.6930 2.9224
4 4 16 -6.8132 33.4099
4 4 17 9.3692 -5.1405
4 4 18 -5.8219 -34.4924
4 4 19 -2.7278 4.3842
4 4 20 1.7336 -3.3996
4 4 21 5.4458 -3.8415
4 4 22 -0.8164 -9.1279
4 4 23 5.9254 -2.7424
4 4 24 1.8443 2.9757
4 5 0 0.5991 -7.4344
4 5 1 18.7015 -17.6798
4 5 2 -9.4569 -11.4034
4 5 3 12.3748 33.3568
4 5 4 9.9408 -35.9671
4 5 5 -6.1520 9.6177
4 5 6 0.9191 -17.3557
4 5 7 6.0023 11.4736
4 5 8 31.6348 6.3798
4 5 9 -27.3383 15.8803
4 5 10 9.9699 -7.8194
4 5 11 -15.8640 -2.3603
4 5 12 18.4135 2.0031
4 5 13 -4.2867 6.1194
4 5 14 3.1765 -2.5028
4 5 15 18.7226 7.7127
4 5 16 6.2484 4.5358
4 5 17 7.8583 16.4290
4 5 18 -13.8003 -1.1001
4 5 19 -18.6400 -2.3060
4 5 20 1.2994 4.0875
4 5 21 -7.3529 8.1547
4 5 22 12.1973 5.7106
4 5 23 0.2150 5.2527
4 5 24 1.0431 16.0413
4 6 0 -11.5487 -2.2468
4 6 1 -1.7354 -0.4313
4 6 2 -9.8457 3.6987
4 6 3 6.6001 -15.0198
4 6 4 2.4462 -42.9634
4 6 5 8.7822 -11.3386
4 6 6 22.4684 -28.6216
4 6 7 -3.0148 -0.5195
4 6 8 16.7165 -1.5022
4 6 9 -2.8531 -0.4947
4 6 10 1.0458 8.3739
4 6 11 2.6937 -0.5961
4 6 12 14.9265 -7.3705
4 6 13 -4.2614 4.0355
4 6 14 20.2192 3.1864
4 6 15 1.7021 2.3952
4 6 16 -4.1788 0.6199
4 6 17 -2.1793 3.8637
4 6 18 0.8043 13.1897
4 6 19 0.7793 -4.9178
4 6 20 1.7033 -11.9193
4 6 21 -8.1577 -4.3873
4 6 22 11.0513 -0.9280
4 6 23 -4.0550 4.9934
4 6 24 6.3604 6.8574
4 7 0 -8.5090 10.4406
4 7 1 22.9907 34.7987
4 7 2 10.9795 1.7311
4 7 3 -18.0115 16.7811
4 7 4 -16.1726 4.3560
4 7 5 -17.6401 -4.9973
4 7 6 12.0263 -4.2426
4 7 7 -11.3495 -2.2654
4 7 8 12.7693 -5.4285
4 7 9 -9.6855 -7.3911
4 7 10 11.1854 -5.1712
4 7 11 1.3537 1.5531
4 7 12 4.4396 2.7992
4 7 13 6.2442 6.0451
4 7 14 1.0472 -2.2359
4 7 15 9.0040 -1.0119
4 7 16 0.0945 13.7792
4 7 17 3.0230 -1.7803
4 7 18 1.0262 14.1959
4 7 19 -0.1127 8.5681
4 7 20 0.0295 0.3579
4 7 21 -2.4400 -3.3741
4 7 22 1.1932 -0.5519
4 7 23 -1.4671 -8.8307
4 7 24 -0.6620 -5.3765
4 8 0 7.7960 -1.0908
4 8 1 -8.1397 -0.1019
4 8 2 -5.6185 31.2957
4 8 3 -0.1561 -1.5574
4 8 4 -2.2954 19.9371
4 8 5 -1.9172 -0.0663
4 8 6 -8.2395 -1.6913
4 8 7 -4.7754 5.6560
4 8 8 12.2310 -6.7803
4 8 9 1.7230 -5.1360
4 8 10 7.1567 17.4642
4 8 11 4.0981 -1.8558
4 8 12 5.8436 -2.8286
4 8 13 4.3270 -3.5152
4 8 14 12.2169 22.1731
4 8 15 -3.2723 1.6895
4 8 16 8.2441 10.0116
4 8 17 -0.2658 -8.8219
4 8 18 -4.9507 16.2937
4 8 19 -4.2039 2.6103
4 8 20 -10.1271 8.1633
4 8 21 3.9274 -8.4417
4 8 22 -1.8689 9.6436
4 8 23 3.0723 -2.4039
4 9 0 -1.7254 -2.5774
4 9 1 -3.1525 -21.5523
4 9 2 -14.8494 -7.0539
4 9 3 -29.0073 5.1370
4 9 4 13.9453 9.1876
4 9 5 2.2690 -5.3064
4 9 6 -2.3245 -16.8518
4 9 7 -11.5181 22.1701
4 9 8 -13.9055 5.6692
4 9 9 4.4352 9.9790
4 9 10 3.6107 13.1973
4 9 11 7.9858 -5.6252
4 9 12 2.0877 -0.7879
4 9 13 7.4047 -1.2868
4 9 14 -0.8999 9.5141
4 9 15 -7.3110 0.8931
4 9 16 -13.4907 -12.3637
4 9 17 1.6654 -0.4116
4 9 18 5.7715 -18.7530
4 9 19 4.3097 -7.5770
4 9 20 1.8627 3.0349
4 9 21 -3.2436 -9.1488
4 9 22 -1.2203 -21.5152
4 9 23 -2.1453 -5.3040
4 10 0 -5.6117 19.3987
4 10 1 1.5531 -2.5129
4 10 2 1.4009 29.9635
4 10 3 -2.8573 -3.7564
4 10 4 6.2908 9.2110
4 10 5 6.3187 -6.1908
4 10 6 17.9252 17.8419
4 10 7 3.1495 -4.8930
4 10 8 -18.2414 6.2384
4 10 9 1.7501 -3.7155
4 10 10 6.1314 1.8439
4 10 11 -1.4428 -2.0017
4 10 12 14.9505 -6.0946
4 10 13 2.0036 -0.6557
4 10 14 6.9276 16.7782
4 10 15 -9.1675 3.8165
4 10 16 0.2842 -0.6123
4 10 17 -1.2810 -3.9024
4 10 18 15.5872 9.9523
4 10 19 -4.7903 6.7816
4 10 20 -9.8525 -7.8105
4 10 21 -12.8507 -3.2020
4 10 22 4.7808 -9.3872
4 11 0 -12.0993 17.0612
4 11 1 -8.6922 -14.2509
4 11 2 -12.2471 0.2850
4 11 3 -2.2972 0.8603
4 11 4 -1.9413 -23.1470
4 11 5 4.2715 17.0900
4 11 6 11.2113 17.8434
4 11 7 4.6995 7.1017
4 11 8 0.0869 -8.5677
4 11 9 7.3755 13.6664
4 11 10 9.6242 -1.4900
4 11 11 -19.3361 24.8442
4 11 12 9.8864 -7.8909
4 11 13 -0.3442 -3.3080
4 11 14 -1.1777 -4.3111
4 11 15 -4.6985 7.3432
4 11 16 -9.9867 -0.2264
4 11 17 2.5365 -8.1501
4 11 18 12.7667 -10.6769
4 11 19 -6.2254 1.6591
4 11 20 4.0146 -6.9432
4 11 21 -2.5187 5.8344
4 11 22 -0.3745 4.4291
4 12 0 -11.7689 -2.9684
4 12 1 2.9987 -1.3277
4 12 2 -13.6663 -15.7600
4 12 3 6.3720 -0.0440
4 12 4 13.8093 -22.5716
4 12 5 2.7331 -2.9807
4 12 6 8.5703 5.1991
4 12 7 0.3557 -6.8320
4 12 8 -3.4930 0.6277
4 12 9 5.2386 -3.5936
4 12 10 -1.7570 -6.9642
4 12 11 2.1987 3.4305
4 12 12 6.5063 11.4934
4 12 13 -0.3079 -2.2330
4 12 14 -12.3818 17.4657
4 12 15 0.1039 7.0060
4 12 16 -5.6353 6.2113
4 12 17 -3.3369 8.4005
4 12 18 1.2816 14.2433
4 12 19 3.1361 -6.3606
4 12 20 4.6277 20.0072
4 12 21 8.6619 4.5298
4 13 0 -0.4072 -0.4966
4 13 1 -1.3413 4.1667
4 13 2 -5.4687 8.6118
4 13 3 15.0288 5.5827
4 13 4 2.8205 4.5796
4 13 5 3.2495 21.2266
4 13 6 4.0052 3.0331
4 13 7 -0.2343 -13.5580
4 13 8 -7.1547 6.3417
4 13 9 8.4552 -2.1140
4 13 10 2.2092 -11.8389
4 13 11 -12.4318 -20.0299
4 13 12 4.9649 -2.0533
4 13 13 6.0546 7.6835
4 13 14 -0.4953 2.3956
4 13 15 -12.1530 19.8418
4 13 16 2.6973 -11.8658
4 13 17 -18.0894 4.4800
4 13 18 -2.1905 18.3820
4 13 19 11.5365 8.7731
4 13 20 -12.0171 1.3468
4 13 21 -4.2298 -5.8806
4 14 0 -14.5784 -8.9839
4 14 1 1.7264 -0.0651
4 14 2 5.9587 -14.0766
4 14 3 0.8743 0.5100
4 14 4 9.0942 -5.7134
4 14 5 5.3080 2.5345
4 14 6 -5.9426 -19.0880
4 14 7 4.1103 1.2675
4 14 8 10.3092 -14.6484
4 14 9 -9.3828 8.8182
4 14 10 18.5263 6.5066
4 14 11 -2.7620 7.8822
4 14 12 13.8450 -5.0623
4 14 13 0.7661 3.0583
4 14 14 5.5811 -9.5177
4 14 15 -10.9772 -4.1693
4 14 16 -3.5561 9.3897
4 14 17 -4.3798 -17.7176
4 14 18 -16.1906 -0.3159
4 14 19 -4.0047 7.2033
4 14 20 -15.5199 -3.5511
4 15 0 8.0710 -7.3078
4 15 1 5.0736 -11.8542
4 15 2 3.5275 -9.8129
4 15 3 -8.8077 -3.1366
4 15 4 -13.4824 -15.6058
4 15 5 0.4271 -14.2887
4 15 6 -8.3117 -23.0048
4 15 7 3.3946 -0.3965
4 15 8 -4.0553 -6.9184
4 15 9 0.9348 8.5707
4 15 10 -4.9852 7.3180
4 15 11 -5.5069 8.0742
4 15 12 -0.1972 18.2429
4 15 13 5.1091 -17.3260
4 15 14 2.9713 -0.9677
4 15 15 9.6671 -9.0898
4 15 16 18.2630 -4.8588
4 15 17 11.0287 -4.6695
4 15 18 4.6107 13.5807
4 15 19 -6.0506 -15.6733
4 16 0 -0.1306 9.6937
4 16 1 0.4888 1.7658
4 16 2 -9.7191 -4.2640
4 16 3 -4.1254 6.3199
4 16 4 -1.5828 -0.1683
4 16 5 -1.2304 -2.0557
4 16 6 -4.9479 15.3680
4 16 7 -3.0629 9.9628
4 16 8 5.5407 -0.1102
4 16 9 2.1976 6.1414
4 16 10 1.1124 8.9298
4 16 11 -4.6135 3.7460
4 16 12 9.1459 24.3737
4 16 13 -7.7622 -2.1342
4 16 14 19.6710 -0.3222
4 16 15 7.3401 -6.5981
4 16 16 15.6340 3.3164
4 16 17 3.9799 8.0582
4 16 18 -0.8410 13.1338
4 17 0 -8.4905 -2.4583
4 17 1 -4.6412 -15.6018
4 17 2 -11.9655 -1.7722
4 17 3 6.7967 -4.5037
4 17 4 1.4005 4.7724
4 17 5 -12.8310 -7.4116
4 17 6 -1.2596 3.4639
4 17 7 5.5596 7.4163
4 17 8 2.2144 -3.8487
4 17 9 -13.7259 3.9222
4 17 10 11.2361 -3.8024
4 17 11 -4.3151 -0.9887
4 17 12 12.7555 5.3624
4 17 13 -0.2783 -2.0041
4 17 14 -2.9776 -6.7712
4 17 15 7.5067 -8.1486
4 17 16 1.1126 1.0126
4 17 17 0.5415 4.6190
4 18 0 8.4229 -0.4491
4 18 1 -4.1050 -5.7349
4 18 2 2.4112 -15.1029
4 18 3 -4.8104 -2.3266
4 18 4 2.5541 -4.4473
4 18 5 -2.5836 -3.5056
4 18 6 -1.5650 -6.3577
4 18 7 -0.6250 -3.4414
4 18 8 -14.6881 -0.8567
4 18 9 -9.3017 -2.7584
4 18 10 12.7244 -0.8588
4 18 11 -11.8178 -14.4672
4 18 12 -9.2310 5.8257
4 18 13 -0.7607 -1.8200
4 18 14 -7.6163 -7.6944
4 18 15 6.1084 -2.9560
4 18 16 9.4449 6.4576
4 19 0 -2.7880 5.5068
4 19 1 7.1881 8.3748
4 19 2 -3.3418 5.9712
4 19 3 3.5283 9.1792
4 19 4 9.4590 3.8481
4 19 5 -4.4544 -10.4659
4 19 6 5.5816 16.2588
4 19 7 3.5914 4.8644
4 19 8 4.1569 1.8726
4 19 9 -15.9732 0.4860
4 19 10 -5.0286 -10.3074
4 19 11 -3.2742 -5.8530
4 19 12 4.2834 11.2890
4 19 13 3.5995 9.9185
4 19 14 -2.1117 9.7674
4 19 15 14.1503 9.9306
4 20 0 -6.8799 -3.7304
4 20 1 -4.2553 1.4713
4 20 2 10.1488 20.2826
4 20 3 -8.3833 -1.0262
4 20 4 1.2289 10.7732
4 20 5 -1.2325 4.4452
4 20 6 -7.2587 6.4415
4 20 7 -6.9571 -0.1432
4 20 8 4.1110 -3.7383
4 20 9 -1.7437 -1.4549
4 20 10 1.0557 -1.9630
4 20 11 7.9008 -1.1868
4 20 12 -16.2978 0.2066
4 20 13 2.7678 -1.3449
4 21 0 -4.8683 8.9739
4 21 1 5.1300 -2.3114
4 21 2 -7.0871 -5.1274
4 21 3 -11.8341 -20.6052
4 21 4 0.1363 -4.4437
4 21 5 4.2672 -5.4489
4 21 6 -3.7019 -5.0831
4 21 7 -3.8240 -6.6037
4 21 8 2.8453 -4.3866
4 21 9 -1.7469 0.3951
4 21 10 12.6361 7.9798
4 21 11 1.2440 9.6315
4 22 0 -0.5651 7.1497
4 22 1 -7.6693 -6.0704
4 22 2 0.2849 0.1184
4 22 3 2.4336 -6.9184
4 22 4 -0.9302 1.8994
4 22 5 0.8564 3.7405
4 22 6 -7.4461 -2.1577
4 22 7 -5.5087 3.4933
4 22 8 1.3056 -15.8500
4 22 9 -0.6200 -10.3934
4 23 0 -7.8286 -0.4390
4 23 1 -19.5450 0.7515
4 23 2 -7.3249 -4.2961
4 23 3 -1.4276 -5.1224
4 23 4 -4.4454 2.5092
4 23 5 2.0178 -9.3668
5 0 0 -13.6916 -0.5115
5 0 2 -8.0828 -13.5582
5 0 4 3.8731 2.9179
5 0 6 8.2960 5.5248
5 0 8 -11.0692 8.0283
5 0 10 0.6728 1.1778
5 0 12 4.8996 6.2954
5 0 14 -1.0879 -5.4681
5 0 16 -3.0867 -9.9111
5 0 18 1.4592 0.4916
5 0 20 8.7271 -3.8553
5 0 22 -2.5827 -1.2731
5 0 24 -6.5114 2.5748
5 1 0 6.1639 54.6152
5 1 1 -14.2840 -7.6980
5 1 2 -51.9780 -10.3976
5 1 3 -29.0241 16.9526
5 1 4 -53.8269 4.4923
5 1 5 7.8123 -29.3440
5 1 6 -8.0508 -10.6382
5 1 7 -8.9988 -2.6051
5 1 8 -7.3457 1.9469
5 1 9 -15.7699 4.7578
5 1 10 6.5561 -12.3593
5 1 11 13.2373 0.1183
5 1 12 9.4178 10.7728
5 1 13 0.0898 -4.8020
5 1 14 -0.6965 7.2590
5 1 15 19.0329 -28.0498
5 1 16 0.3441 -8.8863
5 1 17 -3.9415 -0.2531
5 1 18 10.6985 -11.9388
5 1 19 -19.2464 0.4902
5 1 20 13.8888 1.9888
5 1 21 -3.7558 -13.1455
5 1 22 -4.5225 8.7870
5 1 23 5.8563 -22.3849
5 1 24 -3.6048 2.3868
5 2 0 2.3078 -2.4395
5 2 1 -85.2273 20.5551
5 2 2 11.5268 -1.6251
5 2 3 14.3751 5.2728
5 2 4 4.2041 -0.9601
5 2 5 -22.8140 61.1183
5 2 6 4.2341 -1.5050
5 2 7 -24.0674 -0.7706
5 2 8 -1.2261 1.8801
5 2 9 2.7947 16.6933
5 2 10 -8.0146 -6.3605
5 2 11 -7.3762 18.8925
5 2 12 2.6335 -8.1874
5 2 13 -9.2825 7.3917
5 2 14 -1.7064 4.5855
5 2 15 -0.4187 5.0869
5 2 16 -1.3339 3.1439
5 2 17 15.7441 -6.7467
5 2 18 3.2017 -1.5122
5 2 19 9.3202 -0.3071
5 2 20 -5.0106 -1.2908
5 2 21 1.1714 1.5364
5 2 22 -3.4897 11.9458
5 2 23 5.7194 -6.4377
5 2 24 0.1314 -1.6365
5 3 0 3.4785 54.6794
5 3 1 -32.2574 -16.6958
5 3 2 -26.2568 46.1543
5 3 3 0.8373 -18.8508
5 3 4 0.0372 -14.2365
5 3 5 -0.3830 3.1305
5 3 6 -6.7027 -5.7553
5 3 7 0.0727 12.9974
5 3 8 13.2361 5.6123
5 3 9 -3.5651 5.1261
5 3 10 9.4657 -0.3484
5 3 11 -7.2420 9.6616
5 3 12 22.3919 -0.5995
5 3 13 -14.3211 23.4367
5 3 14 17.2448 15.6707
5 3 15 -2.3493 15.6438
5 3 16 -0.0356 -9.8035
5 3 17 10.2364 9.5414
5 3 18 -8.0743 -4.2642
5 3 19 13.2041 -4.0150
5 3 20 -5.6543 -9.4552
5 3 21 3.6015 -8.0683
5 3 22 6.2390 -0.8919
5 3 23 -3.5288 -1.1341
5 3 24 -9.2699 -2.3006
5 4 0 -8.0962 3.6149
5 4 1 29.2998 35.9749
5 4 2 -8.8483 -1.8336
5 4 3 -10.8968 41.9656
5 4 4 1.2116 -4.9007
5 4 5 -10.0777 -9.1052
5 4 6 5.7142 2.5826
5 4 7 -41.7125 24.7001
5 4 8 -0.7425 9.6614
5 4 9 -27.7040 9.5526
5 4 10 3.4972 0.8058
5 4 11 -25.3166 4.2159
5 4 12 1.0873 8.8234
5 4 13 21.2369 -14.9473
5 4 14 1.6769 5.5769
5 4 15 5.6396 11.4469
5 4 16 -2.0598 -6.1533
5 4 17 -8.2826 -8.0950
5 4 18 -2.8922 -5.7763
5 4 19 -16.1551 5.6616
5 4 20 -5.1342 3.9018
5 4 21 -21.4065 9.7115
5 4 22 -6.0991 5.2379
5 4 23 -10.5786 1.7398
5 4 24 -3.5511 1.0529
5 5 0 -9.4482 26.2797
5 5 1 -17.7589 8.8207
5 5 2 -21.3536 37.9443
5 5 3 2.3699 -5.4599
5 5 4 -15.0278 -5.1568
5 5 5 10.5530 17.7731
5 5 6 4.4244 10.7053
5 5 7 -6.0651 5.1816
5 5 8 -9.1708 33.2346
5 5 9 -26.1853 10.3959
5 5 10 -24.0616 5.3264
5 5 11 4.3177 -7.2021
5 5 12 -1.2668 -13.0045
5 5 13 -10.7150 -6.3738
5 5 14 -8.0177 -7.8990
5 5 15 4.4090 -5.5398
5 5 16 -18.2894 -9.7044
5 5 17 -3.9933 15.6794
5 5 18 -6.1105 -3.0086
5 5 19 4.9767 -10.3467
5 5 20 -8.4295 -16.3368
5 5 21 16.9783 1.8960
5 5 22 0.3772 -12.9049
5 5 23 2.3540 3.8882
5 5 24 12.5724 -3.6524
5 6 0 -5.6157 3.2287
5 6 1 -9.3509 15.0548
5 6 2 2.8418 -8.3110
5 6 3 -46.9799 -19.1538
5 6 4 -2.4452 -8.9368
5 6 5 -7.4567 -2.2616
5 6 6 6.3306 4.6379
5 6 7 -3.6286 -6.9070
5 6 8 4.9335 0.2530
5 6 9 -0.1033 -2.5877
5 6 10 -0.7442 2.9642
5 6 11 -5.0227 -18.0084
5 6 12 -4.7641 -2.4547
5 6 13 -6.4208 -15.6165
5 6 14 -7.8382 -2.2105
5 6 15 -14.9513 -20.9167
5 6 16 -3.7709 3.3576
5 6 17 17.8812 -1.4261
5 6 18 0.1075 -0.1754
5 6 19 -0.2788 5.2843
5 6 20 -4.8488 1.8370
5 6 21 2.9307 -1.0838
5 6 22 2.4806 5.6910
5 6 23 -4.2195 3.5274
5 6 24 -3.7008 -5.6563
5 7 0 3.9917 7.4010
5 7 1 6.4778 -4.0585
5 7 2 -6.4442 20.9812
5 7 3 16.7392 8.7168
5 7 4 -8.1988 5.8086
5 7 5 -7.4980 -0.3885
5 7 6 32.4633 29.1152
5 7 7 -20.8042 26.2950
5 7 8 -15.0029 6.9897
5 7 9 2.2216 -21.0458
5 7 10 -3.7382 5.1250
5 7 11 -0.8830 7.6120
5 7 12 -18.3354 1.0735
5 7 13 4.1860 9.3819
5 7 14 -8.5860 -10.0741
5 7 15 -12.7893 1.3711
5 7 16 5.8259 5.1201
5 7 17 -10.4057 -11.9196
5 7 18 -5.6269 0.3684
5 7 19 8.2454 -1.7989
5 7 20 -7.9803 10.9824
5 7 21 -4.9390 -2.6315
5 7 22 -10.9608 -1.6043
5 7 23 -3.2562 9.4224
5 8 0 12.2400 0.6584
5 8 1 27.3519 5.0004
5 8 2 -0.0351 2.3656
5 8 3 3.9489 9.6224
5 8 4 0.3386 -3.4597
5 8 5 3.0252 -13.8380
5 8 6 -0.4515 -5.9539
5 8 7 3.8793 9.1632
5 8 8 2.8415 1.8580
5 8 9 20.7281 2.9217
5 8 10 -7.0691 -0.1680
5 8 11 16.9273 13.1437
5 8 12 -2.7591 -4.0334
5 8 13 7.3167 8.7657
5 8 14 2.2517 3.7915
5 8 15 -0.3453 -0.4637
5 8 16 -2.5273 -4.1065
5 8 17 7.7740 -20.6021
5 8 18 -2.5453 1.5563
5 8 19 11.0326 -2.0620
5 8 20 4.5554 1.2199
5 8 21 1.1207 8.8111
5 8 22 -4.3331 -4.7424
5 8 23 5.8689 4.2873
5 9 0 -24.4865 8.1994
5 9 1 -8.0407 14.0755
5 9 2 17.8098 3.7956
5 9 3 -3.0314 -3.2433
5 9 4 4.0848 21.6187
5 9 5 4.6902 13.0618
5 9 6 -29.9182 -2.4498
5 9 7 -11.4547 -12.6953
5 9 8 -8.1136 -12.0257
5 9 9 -2.9589 1.4490
5 9 10 -9.0493 -5.3252
5 9 11 0.9764 -21.2773
5 9 12 -4.3031 -19.0225
5 9 13 -14.3060 -15.4738
5 9 14 2.1473 -2.7222
5 9 15 -6.4016 2.4662
5 9 16 -3.3300 6.9366
5 9 17 -0.1796 6.8883
5 9 18 12.1768 -5.6154
5 9 19 -5.3762 -5.9466
5 9 20 17.0184 4.8202
5 9 21 5.7091 9.7876
5 9 22 -3.2106 4.1820
5 9 23 3.4955 -9.1481
5 10 0 -2.8882 -2.8681
5 10 1 -13.2838 5.9156
5 10 2 -6.9863 -3.8711
5 10 3 -8.3703 6.8502
5 10 4 2.2154 -6.8014
5 10 5 6.8232 24.0183
5 10 6 -2.6068 -3.8092
5 10 7 -4.5621 13.0080
5 10 8 -3.7734 5.7771
5 10 9 -11.9128 -2.9882
5 10 10 -4.4042 3.4425
5 10 11 9.0478 -7.1051
5 10 12 5.0390 -7.4019
5 10 13 -10.9530 10.4244
5 10 14 5.8476 1.6711
5 10 15 9.9285 6.5927
5 10 16 -6.6518 3.1911
5 10 17 -5.6694 4.8717
5 10 18 1.9220 -7.0213
5 10 19 -11.6871 -2.0122
5 10 20 4.6448 -6.1358
5 10 21 -5.3771 -8.5006
5 10 22 4.2548 0.3793
5 11 0 3.2972 -2.8578
5 11 1 7.9656 4.9618
5 11 2 0.1217 -21.6818
5 11 3 -11.3658 6.6435
5 11 4 24.9070 -6.0432
5 11 5 -6.7069 0.9696
5 11 6 -10.9226 4.4047
5 11 7 -0.7476 -4.8072
5 11 8 -0.7065 2.0947
5 11 9 0.7582 -7.7064
5 11 10 -15.2408 17.2887
5 11 11 -16.4266 6.5072
5 11 12 -19.5260 0.8153
5 11 13 -11.2936 -8.8117
5 11 14 6.7115 1.7102
5 11 15 -6.8772 -25.1148
5 11 16 2.4069 9.8315
5 11 17 5.7531 -14.5181
5 11 18 0.0979 -9.2641
5 11 19 8.6322 -4.5719
5 11 20 -1.1815 11.1383
5 11 21 10.5908 -10.6751
5 11 22 -9.8009 4.0594
5 12 0 -2.6527 0.1295
5 12 1 -14.4268 6.6110
5 12 2 -6.5233 -4.4355
5 12 3 -2.3589 -1.8162
5 12 4 4.7018 2.4951
5 12 5 -20.4827 29.9664
5 12 6 -3.7274 6.8035
5 12 7 -9.9268 1.0128
5 12 8 0.3796 0.0878
5 12 9 -1.9406 2.1102
5 12 10 -2.3533 6.4807
5 12 11 3.7287 -7.3501
5 12 12 1.6767 -8.4688
5 12 13 20.1112 1.5129
5 12 14 -0.0631 1.6019
5 12 15 -0.2977 6.3150
5 12 16 0.3738 3.6542
5 12 17 -22.9712 19.1367
5 12 18 0.5382 0.2950
5 12 19 6.1502 -0.6137
5 12 20 12.2294 -0.9534
5 12 21 -1.3890 12.7787
5 13 0 28.8074 -11.7540
5 13 1 -0.4369 10.8945
5 13 2 -1.6528 5.1402
5 13 3 -5.7637 17.7755
5 13 4 1.0931 -1.8517
5 13 5 -18.0429 14.9990
5 13 6 15.7743 6.8074
5 13 7 -3.3857 8.3668
5 13 8 -10.8707 12.0187
5 13 9 -12.6612 15.9852
5 13 10 -8.2369 21.5668
5 13 11 4.5863 12.4938
5 13 12 9.4440 20.7040
5 13 13 -9.2947 -10.0805
5 13 14 -6.7091 -5.1737
5 13 15 -2.4154 -12.5698
5 13 16 -6.5952 8.8856
5 13 17 -8.6785 1.1838
5 13 18 -12.4423 1.8405
5 13 19 -12.4897 -5.6881
5 13 20 4.5519 -6.9191
5 14 0 -2.1235 -2.4382
5 14 1 -9.9795 5.0865
5 14 2 -2.3654 6.1732
5 14 3 -13.2695 -3.4313
5 14 4 -7.5354 0.7255
5 14 5 -1.4500 -3.4615
5 14 6 3.9542 4.4363
5 14 7 -6.3253 -5.2501
5 14 8 4.3188 2.6744
5 14 9 5.7906 6.6206
5 14 10 9.5358 4.9150
5 14 11 -9.3180 -0.9910
5 14 12 -2.7268 18.4910
5 14 13 -5.7834 2.1523
5 14 14 -4.1259 -2.6826
5 14 15 -4.1450 7.5401
5 14 16 5.0659 2.1392
5 14 17 -22.3360 -6.4360
5 14 18 -5.9272 3.3999
5 14 19 0.6827 -18.1379
5 14 20 4.4141 -8.1433
5 15 0 9.7151 10.7757
5 15 1 3.6918 -3.3203
5 15 2 -2.6171 -6.8638
5 15 3 10.4536 1.0185
5 15 4 -23.7415 11.5367
5 15 5 14.0652 6.0855
5 15 6 -8.7439 -1.1853
5 15 7 -0.7837 -2.2636
5 15 8 7.3863 25.8469
5 15 9 -0.6264 3.3419
5 15 10 8.1577 -25.1769
5 15 11 5.7867 -11.4928
5 15 12 5.2044 -13.5837
5 15 13 11.7698 -0.3918
5 15 14 15.9093 -2.2223
5 15 15 2.2731 -2.0578
5 15 16 5.4859 13.7273
5 15 17 -11.3230 -10.9854
5 15 18 -18.6570 5.6986
5 15 19 11.5258 -14.1813
5 16 0 -2.4304 3.8483
5 16 1 -21.7444 -5.5013
5 16 2 -4.6588 0.7808
5 16 3 -1.5371 6.4716
5 16 4 -0.7561 2.4047
5 16 5 -15.8190 5.0145
5 16 6 -0.0735 -2.2939
5 16 7 5.6578 7.6659
5 16 8 6.8321 -1.3073
5 16 9 -6.6999 6.6368
5 16 10 2.2662 10.5976
5 16 11 3.2527 8.0728
5 16 12 4.2518 8.4128
5 16 13 -10.1109 4.1521
5 16 14 -0.3600 4.2734
5 16 15 -11.1210 5.0541
5 16 16 -6.2389 6.4868
5 16 17 -6.1539 -3.2103
5 16 18 -10.1936 -9.2904
5 17 0 4.8663 -3.4334
5 17 1 2.6942 -4.0821
5 17 2 -0.4592 13.2181
5 17 3 -10.0807 -19.9792
5 17 4 10.2675 -6.0493
5 17 5 6.1478 -12.0249
5 17 6 4.2966 0.5864
5 17 7 -3.4180 -11.4742
5 17 8 -6.0827 -14.7676
5 17 9 2.6932 -15.6170
5 17 10 8.9684 4.4083
5 17 11 1.7323 -2.6074
5 17 12 8.4149 8.7715
5 17 13 -2.9948 -0.9290
5 17 14 4.9415 -1.4844
5 17 15 0.1057 4.3757
5 17 16 0.5064 -0.2822
5 17 17 -1.3831 -9.4096
5 18 0 -2.4122 0.6721
5 18 1 4.7443 -2.8610
5 18 2 -4.0760 4.0702
5 18 3 -2.9778 -13.4484
5 18 4 -0.1473 0.5203
5 18 5 13.8809 4.0247
5 18 6 2.7175 0.7081
5 18 7 -0.1909 2.9258
5 18 8 6.4152 -0.8997
5 18 9 -10.7105 -19.7435
5 18 10 10.5807 3.7851
5 18 11 -10.0237 -0.7910
5 18 12 -2.2858 10.0708
5 18 13 2.1358 15.1437
5 18 14 2.1707 -0.5272
5 18 15 3.3995 7.9670
5 18 16 -4.6884 -4.2001
5 19 0 9.6119 5.4579
5 19 1 -5.6764 -8.1838
5 19 2 -4.9960 2.5483
5 19 3 -9.3623 -9.1522
5 19 4 -4.2244 0.3172
5 19 5 -1.4588 -5.6522
5 19 6 -8.3269 -4.0014
5 19 7 0.0959 -5.1102
5 19 8 3.2663 2.0943
5 19 9 4.5015 -6.4348
5 19 10 -0.8232 1.4466
5 19 11 0.4116 -16.1020
5 19 12 4.7344 3.2800
5 19 13 12.9302 1.3379
5 19 14 -8.5840 4.2403
5 20 0 0.1319 0.7429
5 20 1 -10.1770 -12.4912
5 20 2 -1.7829 -2.7841
5 20 3 6.8201 -7.4045
5 20 4 0.1271 2.1351
5 20 5 -2.6892 -1.8288
5 20 6 -1.7402 2.2280
5 20 7 -7.3524 -0.0423
5 20 8 5.6991 1.9126
5 20 9 -2.1342 11.4341
5 20 10 4.3697 6.6549
5 20 11 -4.2794 -6.5844
5 20 12 -5.2629 -6.5242
5 20 13 4.0666 0.9529
5 21 0 1.5200 4.1463
5 21 1 -11.8567 -9.4078
5 21 2 4.4689 15.7746
5 21 3 -9.8873 -3.8232
5 21 4 3.0870 15.3517
5 21 5 -4.2125 -7.5503
5 21 6 -5.6426 3.5010
5 21 7 12.0602 7.9546
5 21 8 3.4658 -5.8566
5 21 9 2.8306 1.4163
5 21 10 10.2711 -3.1389
5 21 11 -2.1790 1.4060
5 22 0 -13.2676 -2.2663
5 22 1 -11.6272 -5.6865
5 22 2 -3.9109 -5.6150
5 22 3 -4.5726 -4.6881
5 22 4 0.5450 5.6818
5 22 5 -4.0410 -2.3169
5 22 6 -2.7585 -0.6471
5 22 7 -0.6116 -6.2041
5 22 8 5.6247 -5.5683
5 23 0 1.3307 8.1109
5 23 1 -4.9225 11.0318
5 23 2 2.6135 4.5907
5 23 3 -7.9063 5.7280
5 23 4 -7.2240 -3.9292
5 23 5 -3.8583 -0.0836
6 0 0 -14.3487 2.7169
6 0 2 -13.1700 14.6325
6 0 4 18.8611 -10.5600
6 0 6 22.4663 -32.9461
6 0 8 44.2696 -17.8291
6 0 10 43.5926 16.0831
6 0 12 6.6677 14.0887
6 0 14 13.5484 -18.4271
6 0 16 16.6311 -15.3217
6 0 18 8.0543 -10.9954
6 0 20 3.2548 -1.2251
6 0 22 2.9838 0.9687
6 0 24 -2.5063 6.7678
6 1 0 -11.7692 16.7066
6 1 1 17.1115 9.5326
6 1 2 -1.1404 18.2324
6 1 3 -9.2192 1.6466
6 1 4 5.8201 -2.8976
6 1 5 3.6304 -20.2394
6 1 6 6.4859 5.4775
6 1 7 3.1408 -18.4929
6 1 8 -9.5886 2.6200
6 1 9 -17.2202 12.5582
6 1 10 9.6424 -9.2554
6 1 11 4.6430 1.8790
6 1 12 12.0824 -2.7652
6 1 13 -3.3970 -14.8029
6 1 14 -0.0269 0.5776
6 1 15 -11.2830 -8.3050
6 1 16 -13.5795 8.2963
6 1 17 -7.9199 -1.6080
6 1 18 -17.0571 -9.7189
6 1 19 6.8673 -6.4841
6 1 20 -9.6068 -1.1340
6 1 21 -5.0600 -3.1291
6 1 22 -6.3410 10.8711
6 1 23 1.5936 -9.9825
6 1 24 -10.4977 14.0034
6 2 0 13.1468 11.9070
6 2 1 -0.5268 -0.7233
6 2 2 -16.2676 1.1192
6 2 3 -7.3342 -7.6606
6 2 4 -6.5692 -12.3750
6 2 5 -3.7064 -0.3312
6 2 6 5.5293 13.3537
6 2 7 0.7862 5.0693
6 2 8 16.7211 2.1184
6 2 9 -2.8811 -2.0048
6 2 10 28.2738 8.1229
6 2 11 1.4748 3.0471
6 2 12 -2.7892 5.6569
6 2 13 4.2023 0.2351
6 2 14 3.0174 3.1711
6 2 15 -0.7161 1.1432
6 2 16 5.7451 -12.2071
6 2 17 -2.8494 -5.0061
6 2 18 -1.8370 -2.7009
6 2 19 2.4538 9.5603
6 2 20 18.0615 6.4411
6 2 21 5.3279 5.9981
6 2 22 2.6693 13.6786
6 2 23 2.9597 -10.4833
6 2 24 -0.0715 -2.3791
6 3 0 -12.5070 7.2330
6 3 1 32.8669 25.1050
6 3 2 -23.3105 -13.8160
6 3 3 -18.2458 5.5076
6 3 4 -10.2851 -2.9712
6 3 5 -21.7390 -21.9752
6 3 6 -12.4654 23.3061
6 3 7 20.6694 1.0824
6 3 8 -17.8306 -9.1550
6 3 9 -1.6678 23.4205
6 3 10 -3.9431 -19.1500
6 3 11 -16.2684 -9.2059
6 3 12 13.5569 -4.4944
6 3 13 11.7543 7.6927
6 3 14 -5.9416 6.7378
6 3 15 -3.3623 6.5886
6 3 16 9.1063 -3.5566
6 3 17 3.1063 -4.1690
6 3 18 -10.3952 6.4091
6 3 19 -3.0638 -6.7136
6 3 20 -0.5926 -14.6006
6 3 21 13.9864 -3.2187
6 3 22 4.8869 9.5358
6 3 23 0.9894 -9.1703
6 3 24 -1.2500 4.7227
6 4 0 10.3769 24.4856
6 4 1 5.2103 -13.2394
6 4 2 -1.6010 9.0194
6 4 3 -2.6626 -0.5762
6 4 4 -5.5311 -13.0944
6 4 5 1.9661 -1.4707
6 4 6 2.1743 24.2249
6 4 7 -6.0023 -2.3178
6 4 8 -13.1789 -10.7654
6 4 9 -3.2460 -3.9530
6 4 10 -4.2279 -3.4862
6 4 11 -2.2683 -0.6802
6 4 12 -3.8845 -15.1067
6 4 13 5.6054 5.0473
6 4 14 -5.8472 8.2947
6 4 15 0.2785 -4.3900
6 4 16 -15.2107 10.9642
6 4 17 3.7709 1.2755
6 4 18 12.3789 7.0183
6 4 19 1.7161 1.4545
6 4 20 3.3632 4.1055
6 4 21 -6.3852 -1.7015
6 4 22 11.2786 7.2373
6 4 23 -7.6561 1.1480
6 4 24 -1.2254 6.4180
6 5 0 22.1327 -3.4433
6 5 1 9.5206 6.6613
6 5 2 10.4175 11.8597
6 5 3 1.5609 17.4948
6 5 4 2.0653 -5.3978
6 5 5 15.4117 -9.7180
6 5 6 -14.3191 -4.0206
6 5 7 -11.3489 10.1096
6 5 8 -14.8849 -10.4738
6 5 9 -2.6267 -5.6464
6 5 10 6.6060 -1.5156
6 5 11 -4.2047 2.7285
6 5 12 -13.1134 12.5812
6 5 13 -15.1865 -4.6195
6 5 14 -2.6492 1.9385
6 5 15 17.3681 -4.2228
6 5 16 -6.0189 5.7271
6 5 17 11.1668 -0.3115
6 5 18 6.3306 0.0360
6 5 19 18.6919 -7.0439
6 5 20 2.1737 17.1321
6 5 21 -8.1478 -7.8209
6 5 22 0.9235 14.4608
6 5 23 3.3963 4.4901
6 5 24 -2.6754 -1.4105
6 6 0 4.4040 -1.3535
6 6 1 -4.2808 -5.6703
6 6 2 -8.7586 26.8823
6 6 3 8.8938 4.0097
6 6 4 -4.4062 12.3603
6 6 5 -1.2485 0.1807
6 6 6 8.5060 -13.9246
6 6 7 2.5332 6.2425
6 6 8 -4.4665 -3.3625
6 6 9 -4.4972 5.2480
6 6 10 -16.5959 -22.3515
6 6 11 6.8570 11.1670
6 6 12 -12.4434 -8.5977
6 6 13 -6.0237 -0.8474
6 6 14 17.5555 -15.4720
6 6 15 -3.5533 1.6290
6 6 16 21.0644 3.8514
6 6 17 -5.7276 -3.3426
6 6 18 -9.3123 7.0640
6 6 19 7.3180 -7.4365
6 6 20 -4.7034 -1.8656
6 6 21 -9.8740 -10.0949
6 6 22 -11.7170 0.1671
6 6 23 -0.0666 -4.6273
6 7 0 -5.0098 -2.4362
6 7 1 -7.8328 -4.6845
6 7 2 -1.6748 10.1053
6 7 3 -0.6668 16.4370
6 7 4 -16.1413 3.4493
6 7 5 -16.9650 4.5156
6 7 6 -10.1463 -10.5799
6 7 7 0.2332 0.0899
6 7 8 3.9817 -7.6639
6 7 9 -5.3842 4.6206
6 7 10 3.7126 -0.5167
6 7 11 -6.0008 6.8009
6 7 12 -4.2703 4.2042
6 7 13 -0.6134 0.4200
6 7 14 -8.9862 6.0348
6 7 15 20.9224 -3.9858
6 7 16 -10.0336 -2.1815
6 7 17 5.6419 -2.2460
6 7 18 -8.4605 1.1419
6 7 19 -3.6665 -6.0785
6 7 20 3.4117 5.3870
6 7 21 1.8999 0.0218
6 7 22 -11.0043 -9.6863
6 7 23 -1.9492 -1.8325
6 8 0 9.1165 -6.3529
6 8 1 7.3002 -4.8266
6 8 2 10.4358 -16.4003
6 8 3 0.9177 -5.9581
6 8 4 -7.9148 -12.4578
6 8 5 -4.1052 -2.5671
6 8 6 -12.6389 -11.1363
6 8 7 -5.7210 6.5948
6 8 8 -0.5941 -4.0829
6 8 9 8.9188 2.8707
6 8 10 -0.6203 5.9766
6 8 11 0.8746 2.0564
6 8 12 1.5292 1.2026
6 8 13 0.3133 0.3106
6 8 14 7.1196 -26.8939
6 8 15 1.4003 0.2843
6 8 16 16.2816 -3.4183
6 8 17 4.2188 -4.4639
6 8 18 7.8782 -3.7932
6 8 19 -3.4134 4.3788
6 8 20 -3.6472 4.5086
6 8 21 -5.9271 7.8932
6 8 22 -0.6489 -0.8474
6 8 23 -2.8539 -3.2280
6 9 0 24.9025 2.3766
6 9 1 6.0322 1.8268
6 9 2 10.2616 3.7682
6 9 3 6.2980 -8.8184
6 9 4 -0.8906 21.7744
6 9 5 -9.0452 18.3667
6 9 6 0.5278 -1.8434
6 9 7 -6.3375 -10.6217
6 9 8 9.9022 -1.6476
6 9 9 -8.6129 4.5162
6 9 10 -7.3314 4.2104
6 9 11 6.9111 -0.4474
6 9 12 1.4123 6.2043
6 9 13 7.6927 -1.3631
6 9 14 -5.1246 3.4769
6 9 15 10.1830 5.8861
6 9 16 2.5772 14.7328
6 9 17 -12.5583 1.8494
6 9 18 -0.2735 20.6960
6 9 19 -1.4888 -5.5217
6 9 20 -6.5354 -0.4701
6 9 21 4.1574 4.5836
6 9 22 9.4249 3.3383
6 10 0 7.5350 -1.6361
6 10 1 3.0676 -3.4711
6 10 2 8.1882 1.9044
6 10 3 7.6547 5.0940
6 10 4 20.3047 10.3450
6 10 5 3.9450 0.1199
6 10 6 1.6664 1.0179
6 10 7 5.8135 0.4648
6 10 8 -4.7133 -10.8345
6 10 9 -3.6137 -2.1324
6 10 10 1.6959 4.5302
6 10 11 8.5547 -2.3235
6 10 12 12.0485 -0.9515
6 10 13 -0.0682 7.4566
6 10 14 5.3599 -2.9836
6 10 15 -3.6427 -6.0156
6 10 16 17.0962 11.6930
6 10 17 8.5059 4.8410
6 10 18 20.2013 2.6736
6 10 19 1.2839 -2.6815
6 10 20 22.3451 3.4766
6 10 21 -0.1066 -1.4472
6 10 22 1.6374 1.2573
6 11 0 -23.4245 -13.1273
6 11 1 -6.8841 -3.2182
6 11 2 5.3697 7.7949
6 11 3 -4.5680 -7.3520
6 11 4 1.6125 7.7203
6 11 5 7.1572 -7.8263
6 11 6 3.3610 -3.2296
6 11 7 -3.0669 13.6326
6 11 8 13.5518 7.7817
6 11 9 2.1605 -13.5998
6 11 10 18.7294 3.6356
6 11 11 9.5795 -23.9417
6 11 12 6.1603 -12.6124
6 11 13 8.4090 -13.5937
6 11 14 20.3231 -7.1897
6 11 15 8.8450 0.3297
6 11 16 -4.8907 14.7719
6 11 17 0.5481 14.3477
6 11 18 0.6427 6.9097
6 11 19 -4.5770 -8.5209
6 11 20 3.9982 5.6669
6 11 21 3.4072 -4.5961
6 12 0 1.9194 -22.6908
6 12 1 2.3472 4.5333
6 12 2 1.1463 -20.6907
6 12 3 1.5438 0.9234
6 12 4 -1.3270 -0.4201
6 12 5 3.6635 1.7032
6 12 6 -7.5258 8.4305
6 12 7 0.1274 1.4208
6 12 8 2.2257 2.7545
6 12 9 6.0168 5.3880
6 12 10 -9.8747 8.4250
6 12 11 3.5317 3.8440
6 12 12 -0.5687 -19.5883
6 12 13 -2.2486 -5.8257
6 12 14 8.5270 -2.3040
6 12 15 -1.6935 -4.9124
6 12 16 10.4169 5.8375
6 12 17 -13.4034 -4.9660
6 12 18 2.2674 -0.6329
6 12 19 11.8516 -4.6826
6 12 20 -16.5711 20.9437
6 12 21 -0.9783 8.4499
6 13 0 -10.9899 -7.4133
6 13 1 -11.2126 1.7140
6 13 2 -6.8403 -14.5057
6 13 3 8.2189 8.7495
6 13 4 -7.7573 4.9441
6 13 5 11.2958 -5.6449
6 13 6 -2.4112 5.5241
6 13 7 25.7017 -0.4919
6 13 8 -1.1979 -0.6294
6 13 9 -3.0431 -11.0196
6 13 10 0.6814 -10.2889
6 13 11 21.5974 4.6053
6 13 12 11.7292 -4.0371
6 13 13 -9.4200 7.1005
6 13 14 -6.3369 5.7113
6 13 15 -5.9177 0.6195
6 13 16 -8.3783 -1.5295
6 13 17 -3.3576 -0.6621
6 13 18 -5.8365 -11.4117
6 13 19 -8.9173 1.4763
6 13 20 8.6298 -0.8665
6 14 0 -9.9882 -9.1004
6 14 1 6.4280 -1.1233
6 14 2 10.4760 9.5943
6 14 3 6.8457 5.4954
6 14 4 -7.1955 2.1672
6 14 5 7.3912 3.8842
6 14 6 16.3187 -6.3386
6 14 7 7.1264 5.7554
6 14 8 -5.4666 8.8947
6 14 9 -9.8355 -5.7519
6 14 10 4.2134 6.3444
6 14 11 -5.9837 -1.4336
6 14 12 -5.2419 18.9403
6 14 13 -2.6968 -4.5121
6 14 14 28.5646 -2.3178
6 14 15 -2.8918 -4.1453
6 14 16 8.0352 -2.4483
6 14 17 12.8298 3.9447
6 14 18 14.5210 17.6821
6 14 19 -0.7613 7.0865
6 15 0 -5.9367 7.4942
6 15 1 6.9531 -2.5176
6 15 2 -6.5090 17.4362
6 15 3 6.2128 -10.1361
6 15 4 2.2762 -3.4262
6 15 5 10.1299 12.2822
6 15 6 8.4268 6.5365
6 15 7 -10.1906 11.7835
6 15 8 0.1093 -1.7653
6 15 9 -9.8412 5.8302
6 15 10 -7.2464 5.5151
6 15 11 -20.2020 4.1685
6 15 12 -0.4753 2.9698
6 15 13 9.7266 0.0754
6 15 14 8.3288 15.7090
6 15 15 5.4533 -0.5490
6 15 16 -10.6751 -4.0337
6 15 17 -1.2969 6.2572
6 15 18 -0.1709 -9.7120
6 16 0 -3.2998 7.8677
6 16 1 0.1914 1.7079
6 16 2 -2.1615 -3.8606
6 16 3 1.8703 -3.2520
6 16 4 3.1468 -2.8745
6 16 5 -0.0595 -2.9776
6 16 6 -17.1355 -7.0859
6 16 7 5.6249 -7.2375
6 16 8 -9.0901 -16.8704
6 16 9 1.9704 11.4064
6 16 10 1.4331 -19.3653
6 16 11 -7.5266 -5.4523
6 16 12 -1.7744 2.4748
6 16 13 -3.8354 -2.9466
6 16 14 -17.8805 3.9590
6 16 15 -5.6255 6.5922
6 16 16 0.8758 2.1707
6 16 17 -6.7797 -2.8490
6 17 0 -4.0016 -1.1851
6 17 1 8.1853 2.2824
6 17 2 -6.8804 4.5385
6 17 3 -2.2939 4.6915
6 17 4 -8.7638 6.6596
6 17 5 -4.6537 -0.4484
6 17 6 4.8314 1.6972
6 17 7 -2.3630 3.4501
6 17 8 4.0497 2.6074
6 17 9 3.8647 11.4797
6 17 10 2.9989 10.5055
6 17 11 -3.1406 -5.5687
6 17 12 2.3948 9.3510
6 17 13 12.2598 -0.5267
6 17 14 5.4481 0.6355
6 17 15 6.6180 4.9905
6 17 16 -2.9789 -4.3661
6 18 0 -15.2171 -10.2089
6 18 1 2.3154 4.6471
6 18 2 12.4150 -14.3635
6 18 3 -0.6423 4.4094
6 18 4 4.2011 8.2400
6 18 5 3.3002 2.6579
6 18 6 1.7606 0.1764
6 18 7 2.0660 -0.8858
6 18 8 -3.7165 -7.3134
6 18 9 -4.9537 -2.3943
6 18 10 8.7098 -0.3550
6 18 11 -3.3359 -1.2970
6 18 12 8.3738 5.1864
6 18 13 -1.3040 2.0057
6 18 14 1.6864 7.6366
6 18 15 -1.2033 4.4986
6 19 0 8.3923 -0.1545
6 19 1 -7.1846 2.7526
6 19 2 8.1020 3.3208
6 19 3 1.1179 10.2981
6 19 4 -0.5206 6.5591
6 19 5 -0.2254 -0.5682
6 19 6 2.3636 -4.5304
6 19 7 -1.9957 8.8190
6 19 8 -6.5177 0.8005
6 19 9 -6.8441 -8.9774
6 19 10 0.0830 -2.6114
6 19 11 12.2983 -1.8528
6 19 12 -6.8856 5.1490
6 19 13 -2.5521 9.3763
6 19 14 -5.7868 4.3435
6 20 0 -10.3679 3.4503
6 20 1 -3.4577 0.6495
6 20 2 -3.8263 2.5557
6 20 3 7.4285 0.9948
6 20 4 -3.0714 3.0886
6 20 5 0.1714 2.4045
6 20 6 -1.7046 -0.5770
6 20 7 9.4609 2.5058
6 20 8 -0.3183 3.3032
6 20 9 -5.1156 7.5935
6 20 10 -1.1162 -5.2262
6 20 11 -12.4507 -4.3229
6 20 12 -2.2420 -6.0750
6 21 0 4.5166 -4.0157
6 21 1 -3.7519 3.9175
6 21 2 7.4400 -4.4190
6 21 3 -3.6711 -9.3221
6 21 4 6.2763 -4.2388
6 21 5 4.5940 8.7865
6 21 6 1.9436 4.3795
6 21 7 -8.5789 -5.6717
6 21 8 -1.8619 8.8534
6 21 9 4.7686 -10.4677
6 21 10 -7.4355 6.9683
6 22 0 -9.2536 12.9647
6 22 1 2.5727 1.5173
6 22 2 -9.1254 -4.3104
6 22 3 0.8362 5.2502
6 22 4 2.4286 -5.7608
6 22 5 2.8491 0.4314
6 22 6 -0.9954 -0.5469
6 22 7 -0.5988 5.0448
6 23 0 -10.2288 -4.3285
6 23 1 -8.6630 -8.2329
6 23 2 -1.9096 -11.7086
6 23 3 0.7069 3.4939
7 0 0 9.1394 -8.9566
7 0 2 5.5589 -12.6150
7 0 4 -0.4074 5.9537
7 0 6 0.3808 -0.2325
7 0 8 -3.8819 7.4877
7 0 10 -8.4224 7.3764
7 0 12 -3.1819 1.9186
7 0 14 4.0870 0.2886
7 0 16 -0.8421 -1.2253
7 0 18 0.0806 1.7792
7 0 20 5.1751 3.1312
7 0 22 0.4181 -3.5567
7 0 24 -7.2066 2.0474
7 1 0 41.1740 -0.2179
7 1 1 -2.0935 10.0297
7 1 2 8.2296 26.2470
7 1 3 -25.0144 -0.8614
7 1 4 -40.9745 -14.0367
7 1 5 19.6729 17.0500
7 1 6 4.0389 -3.5964
7 1 7 8.7005 -3.7971
7 1 8 1.3081 22.3188
7 1 9 15.0887 14.2215
7 1 10 -10.7249 -10.7180
7 1 11 -1.9113 21.4146
7 1 12 -0.3840 -10.2397
7 1 13 -0.6999 0.8974
7 1 14 -10.8119 7.8760
7 1 15 9.4240 9.0539
7 1 16 -6.9867 -4.0218
7 1 17 -4.2977 8.2509
7 1 18 4.1575 2.8564
7 1 19 -11.3186 -22.1304
7 1 20 -9.0265 14.6258
7 1 21 4.3055 -3.4399
7 1 22 -13.4125 -4.0296
7 1 23 5.8508 5.6264
7 1 24 -1.3382 10.0933
7 2 0 -9.8117 0.6470
7 2 1 -28.4045 -60.3109
7 2 2 -0.2061 4.5249
7 2 3 19.8818 -22.4743
7 2 4 1.7295 8.7150
7 2 5 9.4862 6.9987
7 2 6 -1.0236 -2.4378
7 2 7 -13.4627 1.7280
7 2 8 0.8932 3.1305
7 2 9 -5.9175 16.7885
7 2 10 0.7727 0.3778
7 2 11 -4.4140 3.2068
7 2 12 1.8350 2.0361
7 2 13 14.3326 5.7737
7 2 14 -10.0479 -3.2189
7 2 15 2.8372 20.6104
7 2 16 -1.7119 0.9647
7 2 17 9.4311 -2.1008
7 2 18 0.3133 -1.0945
7 2 19 0.2087 1.4407
7 2 20 4.8103 -3.5842
7 2 21 1.9392 3.6576
7 2 22 -4.1529 8.3884
7 2 23 -0.2254 3.3193
7 2 24 0.5542 1.5159
7 3 0 -11.9655 12.5804
7 3 1 -29.3317 -6.8437
7 3 2 -42.5400 13.3942
7 3 3 -8.8842 -10.5435
7 3 4 -9.6807 21.8384
7 3 5 -0.6198 6.4192
7 3 6 -6.7671 -2.3097
7 3 7 14.6417 0.2712
7 3 8 -10.0284 -9.3131
7 3 9 9.1072 20.1991
7 3 10 -15.9911 -0.8538
7 3 11 -8.4232 15.4630
7 3 12 2.5159 -7.7080
7 3 13 -15.6763 -10.3729
7 3 14 0.7729 -5.4577
7 3 15 -15.6028 -15.2828
7 3 16 1.9162 -6.1803
7 3 17 -8.4138 -4.2427
7 3 18 -14.7686 -6.5395
7 3 19 -0.9973 0.2242
7 3 20 -11.9050 -7.9192
7 3 21 -0.7260 -5.3262
7 3 22 7.6251 4.0392
7 3 23 -13.6641 -13.9600
7 3 24 -3.8667 2.0121
7 4 0 -1.7385 0.5064
7 4 1 -1.3492 19.8923
7 4 2 7.5016 -17.2363
7 4 3 -12.3201 -8.5777
7 4 4 -0.7831 -3.0852
7 4 5 0.3366 -6.5370
7 4 6 -0.2868 -3.9890
7 4 7 0.1443 10.6408
7 4 8 2.3161 4.8352
7 4 9 -16.9715 8.3240
7 4 10 3.2707 -1.4179
7 4 11 8.5315 1.2874
7 4 12 -2.8222 -0.1641
7 4 13 27.0209 20.1469
7 4 14 3.2343 -1.8342
7 4 15 -5.7676 17.6996
7 4 16 -0.4773 1.9324
7 4 17 -18.0277 -2.8382
7 4 18 2.3171 -5.6275
7 4 19 -9.3951 -1.2343
7 4 20 -5.8516 10.5898
7 4 21 -8.9870 -0.9914
7 4 22 -0.2624 9.3500
7 4 23 6.4292 5.4104
7 4 24 -9.8312 0.2250
7 5 0 0.7233 14.0241
7 5 1 -19.2513 -2.4269
7 5 2 7.1828 10.2485
7 5 3 -9.0866 -10.1000
7 5 4 -0.6912 -12.1173
7 5 5 -16.5765 1.7619
7 5 6 -0.8626 -3.2865
7 5 7 8.9420 6.7350
7 5 8 -9.1461 -0.6162
7 5 9 -1.1991 19.8711
7 5 10 2.5990 0.7446
7 5 11 -2.1586 10.4588
7 5 12 0.9234 13.1406
7 5 13 11.0407 -0.6015
7 5 14 3.4413 -22.1510
7 5 15 3.9074 20.9334
7 5 16 2.7545 -17.8183
7 5 17 -3.2063 -4.4680
7 5 18 -0.7209 -4.8849
7 5 19 11.0434 1.8434
7 5 20 0.5337 -9.6537
7 5 21 -6.1239 0.5637
7 5 22 10.7581 -1.5777
7 5 23 1.3825 0.6568
7 6 0 8.7227 -2.3793
7 6 1 16.0444 14.3446
7 6 2 5.2359 2.1385
7 6 3 3.7028 6.3656
7 6 4 0.6215 -8.2038
7 6 5 -16.8836 -1.8997
7 6 6 1.6650 -6.5670
7 6 7 -3.3846 11.1922
7 6 8 10.0467 -10.3196
7 6 9 -4.5742 8.6985
7 6 10 -3.9124 1.4808
7 6 11 13.0633 -11.1045
7 6 12 -5.8818 -1.5395
7 6 13 -3.6845 -7.3198
7 6 14 4.9125 4.2092
7 6 15 11.2303 -2.1920
7 6 16 -4.5578 4.6567
7 6 17 -19.6185 11.8577
7 6 18 -4.8734 -1.6860
7 6 19 -14.1158 -2.0980
7 6 20 7.6908 -4.5258
7 6 21 -10.8229 9.6538
7 6 22 -1.4300 3.4364
7 6 23 -6.2647 0.5227
7 7 0 7.3316 11.6113
7 7 1 -17.8349 19.6060
7 7 2 -6.0091 -2.2841
7 7 3 -10.4980 26.5198
7 7 4 1.6707 -4.4048
7 7 5 -1.7323 -1.1491
7 7 6 -2.1128 -8.9555
7 7 7 -9.6754 -13.1890
7 7 8 9.5237 8.3656
7 7 9 19.0460 14.9101
7 7 10 -3.5711 -12.4350
7 7 11 -17.8058 7.9093
7 7 12 3.2913 -10.9824
7 7 13 -7.8737 0.5611
7 7 14 -6.2183 12.9610
7 7 15 0.2831 -14.3642
7 7 16 -11.3979 18.9236
7 7 17 12.7358 1.3065
7 7 18 -13.7747 -2.6736
7 7 19 -9.6136 -2.7189
7 7 20 9.9638 -6.7284
7 7 21 4.3113 -17.8580
7 7 22 -3.0418 -4.8836
7 7 23 -7.0894 -3.7763
7 8 0 2.8540 4.2284
7 8 1 -4.8597 22.9809
7 8 2 -12.1431 1.1892
7 8 3 -2.8061 15.7990
7 8 4 -0.8996 -3.9011
7 8 5 7.9142 12.5403
7 8 6 2.4850 -4.1743
7 8 7 -5.3161 -0.4774
7 8 8 3.5725 -1.4224
7 8 9 1.8716 -1.2984
7 8 10 5.4825 0.6438
7 8 11 -7.2215 -8.1909
7 8 12 -1.2750 2.7925
7 8 13 -6.1025 -6.5567
7 8 14 -7.5582 -3.4227
7 8 15 -11.1818 -16.7869
7 8 16 0.1151 -3.9784
7 8 17 -0.7149 -17.7383
7 8 18 -2.2469 -9.1632
7 8 19 -1.5994 -4.5166
7 8 20 10.1997 -8.8402
7 8 21 -7.2433 -6.9406
7 8 22 0.4744 -1.6269
7 9 0 -2.8279 -6.4613
7 9 1 12.2171 8.4919
7 9 2 -8.2800 -3.2373
7 9 3 4.6253 3.5677
7 9 4 -9.5843 -8.2817
7 9 5 -7.2532 4.7123
7 9 6 6.2421 -14.9584
7 9 7 3.8956 0.3381
7 9 8 6.4086 -5.3595
7 9 9 -5.4219 9.3880
7 9 10 -0.3424 -1.4931
7 9 11 -8.6382 0.6565
7 9 12 8.3537 5.1222
7 9 13 -7.7228 -11.5845
7 9 14 -0.2333 10.9433
7 9 15 -7.1331 13.0474
7 9 16 -5.8892 5.1742
7 9 17 -6.3612 -9.7012
7 9 18 -6.2150 1.5496
7 9 19 4.7993 -0.9732
7 9 20 0.1518 -3.0478
7 9 21 -5.4765 2.1734
7 9 22 0.0068 14.0481
7 10 0 1.9855 7.0202
7 10 1 3.0976 -10.4069
7 10 2 -6.1091 2.9471
7 10 3 21.0349 -1.3242
7 10 4 -0.2959 -2.4088
7 10 5 15.2981 1.6707
7 10 6 -0.2571 -2.1738
7 10 7 -1.4176 4.9802
7 10 8 -1.6400 -1.4056
7 10 9 11.7528 -11.0554
7 10 10 -2.3696 -0.6076
7 10 11 9.7611 8.7045
7 10 12 -8.6084 -1.9581
7 10 13 -3.9064 3.0455
7 10 14 -3.6336 7.0288
7 10 15 0.3104 3.8729
7 10 16 -6.2357 6.9520
7 10 17 16.9703 -2.7312
7 10 18 1.1594 -4.8134
7 10 19 2.0454 2.5420
7 10 20 4.4786 6.8437
7 10 21 10.3707 -0.8516
7 11 0 0.3211 -1.3175
7 11 1 17.3672 14.1385
7 11 2 24.7877 4.9767
7 11 3 6.2804 18.2307
7 11 4 -4.0262 7.3130
7 11 5 6.5871 21.9145
7 11 6 -10.4564 -11.8067
7 11 7 -15.4316 14.6318
7 11 8 -6.7097 -9.5656
7 11 9 8.0914 -1.6404
7 11 10 -2.8015 -2.1092
7 11 11 -10.3829 10.7395
7 11 12 -11.3438 -1.5973
7 11 13 7.1593 -5.8477
7 11 14 -7.3408 -6.0524
7 11 15 3.9027 -7.9756
7 11 16 2.6552 9.1245
7 11 17 6.4156 11.7346
7 11 18 -8.6411 7.5889
7 11 19 5.7625 15.2880
7 11 20 -7.2122 -13.6386
7 11 21 -7.9696 12.0908
7 12 0 1.4957 2.4554
7 12 1 24.9914 -3.6830
7 12 2 -2.4166 -6.0063
7 12 3 14.1314 16.6823
7 12 4 8.7774 -2.6128
7 12 5 17.4477 -7.6494
7 12 6 -6.3382 1.0218
7 12 7 26.9355 0.3037
7 12 8 0.8873 -13.0518
7 12 9 9.7887 -14.2041
7 12 10 -0.1824 2.4532
7 12 11 17.6687 11.2572
7 12 12 3.2800 -5.4809
7 12 13 4.3407 9.1598
7 12 14 -2.1339 -0.3517
7 12 15 -1.3425 9.2790
7 12 16 -5.0503 -4.6219
7 12 17 -7.5353 8.5191
7 12 18 3.1076 -6.2002
7 12 19 -2.4093 14.3680
7 12 20 12.4976 -4.0421
7 13 0 11.2125 9.2221
7 13 1 -2.8478 -10.5578
7 13 2 -6.1324 -15.7759
7 13 3 -3.2467 -3.5182
7 13 4 -0.9427 -15.3040
7 13 5 -12.4884 -3.0535
7 13 6 -2.9374 -3.9394
7 13 7 -9.7543 -3.0359
7 13 8 18.0687 -9.9923
7 13 9 -10.3189 0.2027
7 13 10 7.5146 12.1116
7 13 11 -9.9571 5.5501
7 13 12 -9.1757 -3.8435
7 13 13 -4.7771 -3.8386
7 13 14 6.9001 -17.5732
7 13 15 -3.3448 -2.8123
7 13 16 14.5331 1.6713
7 13 17 -6.6513 -1.8674
7 13 18 -9.7209 10.8153
7 13 19 -8.2405 0.1593
7 13 20 -1.5537 -3.0298
7 14 0 -8.2628 -6.1564
7 14 1 7.3676 6.2545
7 14 2 -4.0959 -0.5995
7 14 3 3.7788 -12.4384
7 14 4 0.5644 0.1990
7 14 5 4.7064 6.6205
7 14 6 -3.4227 1.0846
7 14 7 -1.3732 2.1609
7 14 8 -5.2936 0.8605
7 14 9 -4.6913 18.3717
7 14 10 -6.9788 -4.9023
7 14 11 -7.2821 11.3300
7 14 12 -8.9661 -4.4498
7 14 13 -2.2852 -2.9502
7 14 14 -0.4356 -3.8810
7 14 15 7.4388 0.8354
7 14 16 -3.4143 -4.5571
7 14 17 16.4076 4.7793
7 14 18 -8.8710 1.5689
7 14 19 3.3416 -1.5595
7 15 0 3.0899 -16.9108
7 15 1 17.6393 -6.6568
7 15 2 -1.8821 6.2137
7 15 3 12.4520 12.8288
7 15 4 -1.0341 -11.9090
7 15 5 0.4979 7.5158
7 15 6 11.6601 3.3278
7 15 7 -0.4928 0.4361
7 15 8 -5.1169 5.5516
7 15 9 -1.4758 -7.1216
7 15 10 6.2390 9.7796
7 15 11 0.1545 4.4184
7 15 12 12.0451 -6.3194
7 15 13 -3.4298 -8.6036
7 15 14 2.1879 -3.0766
7 15 15 -3.4327 -0.8126
7 15 16 -4.2339 0.9391
7 15 17 -1.4764 -3.2281
7 15 18 -4.6819 -3.2336
7 16 0 -1.0570 5.6890
7 16 1 -5.6088 -7.1572
7 16 2 3.9938 -1.1018
7 16 3 -7.4027 0.2884
7 16 4 5.4685 6.6430
7 16 5 6.5973 -15.7194
7 16 6 -1.2650 -1.7016
7 16 7 7.7929 6.3495
7 16 8 5.4495 -4.5177
7 16 9 -10.2159 -3.6996
7 16 10 -2.4170 -10.6639
7 16 11 -19.9221 -9.3873
7 16 12 6.1652 4.0263
7 16 13 -6.8882 -10.8500
7 16 14 5.2161 -2.5610
7 16 15 8.6933 -15.4878
7 16 16 -1.8905 8.1403
7 16 17 4.0420 1.9625
7 17 0 9.0570 -0.0848
7 17 1 -7.9509 1.4965
7 17 2 4.8493 1.5175
7 17 3 1.4444 8.0012
7 17 4 3.8503 4.4840
7 17 5 -8.2580 11.5270
7 17 6 -2.9204 6.7330
7 17 7 -5.1911 7.7069
7 17 8 0.8093 -3.5563
7 17 9 -3.4352 -5.6984
7 17 10 -1.2151 -5.0780
7 17 11 5.5569 -6.9837
7 17 12 -8.4539 0.6865
7 17 13 4.4021 -6.5546
7 17 14 11.0073 0.9615
7 17 15 7.0620 4.4191
7 17 16 -2.7956 4.1900
7 18 0 -0.8357 3.3318
7 18 1 16.2552 20.7368
7 18 2 -0.8752 -1.3392
7 18 3 3.8374 -4.3647
7 18 4 -2.1071 1.8935
7 18 5 8.4060 5.4233
7 18 6 2.7300 -4.8376
7 18 7 6.9921 11.8993
7 18 8 0.9010 -4.2836
7 18 9 22.5239 3.9667
7 18 10 6.7259 -2.7406
7 18 11 -2.5739 -10.4185
7 18 12 5.2811 -4.2294
7 18 13 7.8376 -10.7188
7 18 14 -1.7768 0.5653
7 18 15 0.6319 5.0926
7 19 0 15.4221 9.8483
7 19 1 4.5374 -5.3951
7 19 2 -3.7316 0.3758
7 19 3 0.4334 -1.7330
7 19 4 12.3401 0.4021
7 19 5 -5.2044 0.6149
7 19 6 5.7420 4.6450
7 19 7 -3.5291 -4.6260
7 19 8 -5.6990 -5.0591
7 19 9 -2.9384 -4.8458
7 19 10 -2.9938 5.8292
7 19 11 5.0651 -12.9200
7 19 12 -7.4928 -5.7165
7 19 13 7.9107 10.5270
7 20 0 -6.5595 6.8489
7 20 1 -3.6497 -10.2161
7 20 2 -3.2479 2.2649
7 20 3 -0.6283 -6.7452
7 20 4 -0.9636 2.6615
7 20 5 3.9173 6.6911
7 20 6 5.6404 -3.5134
7 20 7 3.6691 -8.3399
7 20 8 -4.3583 -2.8704
7 20 9 -1.4602 0.4593
7 20 10 -4.9358 -7.4315
7 20 11 4.0031 -1.5958
7 21 0 4.7294 2.1032
7 21 1 10.9590 -2.3683
7 21 2 -3.7450 7.1264
7 21 3 4.9390 9.9188
7 21 4 -4.2239 0.5854
7 21 5 3.0458 5.6084
7 21 6 -5.3038 -6.0192
7 21 7 -8.9080 5.4646
7 21 8 10.9380 6.4000
7 21 9 -6.8759 -6.1872
7 22 0 -2.4885 -1.7353
7 22 1 -7.5036 1.6638
7 22 2 -0.6326 -3.0832
7 22 3 -4.0697 1.3735
7 22 4 -0.9881 -0.1563
7 22 5 -4.1554 2.5937
7 22 6 2.6048 8.2741
8 0 0 -38.8680 -9.3157
8 0 2 7.0647 -3.9654
8 0 4 -31.5909 57.7371
8 0 6 -19.9151 -4.6932
8 0 8 35.5527 -15.2754
8 0 10 18.3767 -10.3938
8 0 12 7.8588 -17.2950
8 0 14 12.3117 6.0930
8 0 16 -7.3359 -4.3706
8 0 18 -18.4193 -13.0635
8 0 20 3.0222 -14.5347
8 0 22 4.8554 4.4478
8 1 0 -20.0987 10.4335
8 1 1 -2.2550 9.5014
8 1 2 -32.0770 7.9963
8 1 3 46.1073 -6.0366
8 1 4 26.8544 -6.6653
8 1 5 0.2942 2.4092
8 1 6 11.0113 6.6966
8 1 7 4.5450 -11.0876
8 1 8 -5.4829 6.2927
8 1 9 11.9427 -2.6458
8 1 10 1.8850 4.4771
8 1 11 8.2522 3.9484
8 1 12 -12.3297 5.2823
8 1 13 2.2098 1.7202
8 1 14 -0.2325 -0.1987
8 1 15 3.9757 5.6893
8 1 16 -1.5136 6.3718
8 1 17 -15.4766 -12.0826
8 1 18 -0.0794 -0.1133
8 1 19 -4.2179 -5.0843
8 1 20 -5.6597 3.1658
8 1 21 13.2202 -1.0478
8 1 22 -2.9872 -5.4745
8 1 23 -6.8490 -2.3430
8 2 0 -1.6305 1.5179
8 2 1 -1.6497 -0.2091
8 2 2 -3.8982 -2.2770
8 2 3 1.5864 1.6695
8 2 4 -5.0006 0.0112
8 2 5 -9.0011 -5.6663
8 2 6 -22.0757 -22.2000
8 2 7 -0.7778 -5.4965
8 2 8 -9.5327 -9.9374
8 2 9 3.6964 -4.1965
8 2 10 11.4218 -10.6827
8 2 11 -4.5729 1.9348
8 2 12 14.1138 -8.5491
8 2 13 2.6748 2.8279
8 2 14 -1.9745 -11.5737
8 2 15 -4.9614 -0.5858
8 2 16 -11.2402 -0.6320
8 2 17 -3.3738 -7.8711
8 2 18 -13.3903 -9.3307
8 2 19 -0.2859 -0.3986
8 2 20 -3.2220 3.7975
8 2 21 -0.4888 8.5594
8 2 22 2.6173 2.8950
8 2 23 -2.0386 1.2644
8 3 0 -0.9434 13.1856
8 3 1 9.6678 15.7392
8 3 2 18.6524 -17.6558
8 3 3 5.8224 -27.2426
8 3 4 -9.2253 0.4850
8 3 5 4.5495 -7.8194
8 3 6 12.7388 11.5727
8 3 7 -3.7165 -1.5793
8 3 8 -1.5383 13.9288
8 3 9 10.4850 -5.9990
8 3 10 7.2507 1.4606
8 3 11 21.4415 -4.3933
8 3 12 -1.6175 10.5763
8 3 13 -0.0127 -3.7370
8 3 14 -16.4057 -9.6339
8 3 15 -20.4042 -1.2918
8 3 16 -3.1854 -1.4784
8 3 17 -23.9198 9.7136
8 3 18 8.7308 3.6904
8 3 19 -16.0602 -9.4704
8 3 20 6.2904 0.0796
8 3 21 -5.1295 12.7268
8 3 22 -7.0498 -0.9775
8 3 23 -0.6767 -0.9702
8 4 0 9.1624 -17.9803
8 4 1 -1.2943 -0.3121
8 4 2 -11.4019 -20.6607
8 4 3 -10.9274 -3.9726
8 4 4 -7.8930 -11.1196
8 4 5 -0.2336 10.4657
8 4 6 -1.2384 -5.3478
8 4 7 -3.1800 -2.6862
8 4 8 -6.0579 -5.6587
8 4 9 0.8818 1.6193
8 4 10 -16.2478 -20.1764
8 4 11 1.5418 -2.4138
8 4 12 0.0565 -3.6061
8 4 13 -0.5584 -11.3901
8 4 14 -11.7329 -13.0655
8 4 15 8.2554 1.9154
8 4 16 2.0098 -12.4452
8 4 17 -4.1610 -2.0552
8 4 18 1.1810 -7.7832
8 4 19 2.4972 -6.2724
8 4 20 3.1635 4.1071
8 4 21 4.1422 1.9582
8 4 22 -5.7993 8.8443
8 4 23 -6.9560 1.4154
8 5 0 -8.1279 11.9330
8 5 1 -2.1746 -25.5451
8 5 2 -3.1005 16.2094
8 5 3 -10.5218 -10.7766
8 5 4 7.2122 -7.5632
8 5 5 5.1477 9.2032
8 5 6 6.4923 -2.2207
8 5 7 -9.0875 4.2868
8 5 8 12.4745 -1.5882
8 5 9 -5.5120 0.2910
8 5 10 -5.6046 1.1731
8 5 11 4.7940 -3.9008
8 5 12 5.1291 -9.9688
8 5 13 10.5099 -6.5245
8 5 14 5.0128 0.9268
8 5 15 13.1804 2.1701
8 5 16 4.1903 -15.0803
8 5 17 11.4645 -9.3165
8 5 18 1.1708 3.7553
8 5 19 9.7148 6.2668
8 5 20 -15.7479 3.0690
8 5 21 -6.9149 -6.1489
8 5 22 -5.8704 5.4394
8 5 23 -11.5725 -2.3273
8 6 0 4.1037 -3.8206
8 6 1 4.1681 2.2053
8 6 2 15.6586 -7.0029
8 6 3 4.3593 8.5836
8 6 4 -10.6400 -1.1417
8 6 5 0.1266 -1.9150
8 6 6 -0.8067 2.0775
8 6 7 -2.6424 -0.6149
8 6 8 -6.3146 1.1344
8 6 9 0.2088 -7.4808
8 6 10 -3.9009 2.2329
8 6 11 -5.7499 3.6853
8 6 12 -21.6417 5.8593
8 6 13 0.3209 -9.9248
8 6 14 -3.1488 -8.6329
8 6 15 6.5651 -7.9003
8 6 16 7.4874 1.3169
8 6 17 -5.7142 2.0609
8 6 18 2.1430 5.4901
8 6 19 10.5888 -1.1172
8 6 20 -2.1510 11.4398
8 6 21 -0.2811 4.3244
8 6 22 -4.6480 -3.2467
8 6 23 -4.3515 0.8275
8 7 0 5.7596 -9.7296
8 7 1 -0.0929 -4.5363
8 7 2 7.6911 -5.4250
8 7 3 3.6125 2.0147
8 7 4 -14.1522 10.9355
8 7 5 -9.3556 -3.2132
8 7 6 1.2538 9.9087
8 7 7 -4.8094 -18.0900
8 7 8 -2.9039 6.8101
8 7 9 -3.3503 -6.8312
8 7 10 0.9389 2.0702
8 7 11 -6.8203 -8.2821
8 7 12 0.5934 3.3884
8 7 13 4.1893 9.0960
8 7 14 -0.7954 -2.2323
8 7 15 0.5283 -1.6809
8 7 16 10.7816 1.1523
8 7 17 13.5428 -11.6943
8 7 18 16.9204 6.3348
8 7 19 10.9292 7.2899
8 7 20 2.6307 13.3853
8 7 21 1.7156 19.5765
8 7 22 11.3035 -8.4376
8 8 0 4.8861 -14.1451
8 8 1 -4.0482 -3.7651
8 8 2 22.3062 15.5314
8 8 3 18.1671 -6.6580
8 8 4 -2.2144 12.9817
8 8 5 5.2844 -5.1878
8 8 6 -19.5799 -2.9133
8 8 7 1.8618 -3.8653
8 8 8 -21.0013 -7.6625
8 8 9 12.4147 -2.9892
8 8 10 -10.3396 4.5125
8 8 11 3.2260 -1.2582
8 8 12 -22.5065 -6.8086
8 8 13 -1.7216 0.2594
8 8 14 8.2515 -11.9396
8 8 15 3.6861 -3.4092
8 8 16 9.1187 -12.8906
8 8 17 11.0605 -1.5683
8 8 18 2.4697 1.0745
8 8 19 2.5725 -3.6523
8 8 20 -12.9321 -21.4380
8 8 21 0.3233 0.1998
8 8 22 -5.6846 -3.9506
8 9 0 13.6326 4.5905
8 9 1 2.6862 -0.3104
8 9 2 -1.0042 -3.7264
8 9 3 -6.2229 -3.6617
8 9 4 9.5580 11.9535
8 9 5 -17.5642 -22.1221
8 9 6 -3.6680 -3.1319
8 9 7 9.1611 -10.5457
8 9 8 7.5281 -3.4141
8 9 9 6.5826 2.0057
8 9 10 8.9917 2.5722
8 9 11 -2.4688 2.0006
8 9 12 -5.8698 -3.7144
8 9 13 2.1941 -4.9557
8 9 14 -1.5187 -4.0707
8 9 15 -6.2214 2.4616
8 9 16 -0.7549 -5.1664
8 9 17 4.4806 -6.6805
8 9 18 -7.9579 0.4725
8 9 19 -1.1126 -0.7050
8 9 20 0.9966 -2.8157
8 9 21 -1.0375 -4.5369
8 10 0 -27.1554 6.5455
8 10 1 -0.9556 -5.3307
8 10 2 -16.3547 6.1078
8 10 3 -3.5594 0.4701
8 10 4 -21.9901 24.4340
8 10 5 5.0664 8.7336
8 10 6 -18.0393 13.4200
8 10 7 -5.0007 -10.3076
8 10 8 -19.4805 -6.0082
8 10 9 1.9306 -9.8540
8 10 10 0.5052 -7.2153
8 10 11 1.6553 -2.6920
8 10 12 -9.1214 5.9463
8 10 13 -7.2504 -4.8410
8 10 14 -0.1735 -14.4222
8 10 15 4.1403 -2.3552
8 10 16 -4.8507 -11.2657
8 10 17 -1.5039 8.9085
8 10 18 6.2423 -8.7171
8 10 19 7.4352 -0.3571
8 10 20 4.4781 6.2948
8 10 21 2.2639 3.2850
8 11 0 -2.8301 -14.6693
8 11 1 1.9614 4.2094
8 11 2 19.2444 -4.4183
8 11 3 -0.5671 6.1268
8 11 4 8.2413 5.0488
8 11 5 10.2842 5.3565
8 11 6 5.3420 -5.9383
8 11 7 -9.4396 -4.3987
8 11 8 4.1933 1.2066
8 11 9 -1.5432 9.5997
8 11 10 -3.3321 10.5734
8 11 11 -2.0163 -0.3714
8 11 12 0.7409 -4.8239
8 11 13 0.3907 0.6403
8 11 14 6.8361 -1.3952
8 11 15 2.5419 -8.3463
8 11 16 5.1593 12.2483
8 11 17 -5.0263 -0.2768
8 11 18 -10.5450 5.5824
8 11 19 -5.3213 -7.8133
8 11 20 6.4218 -9.4121
8 12 0 3.7314 5.2553
8 12 1 6.4253 1.6981
8 12 2 -10.1984 -4.3459
8 12 3 5.3233 1.9778
8 12 4 -3.8069 -5.8035
8 12 5 -6.5927 -2.4609
8 12 6 -5.8711 -7.5273
8 12 7 -4.6068 -3.7832
8 12 8 13.8883 3.6370
8 12 9 -3.3425 0.0232
8 12 10 -11.1406 -14.6244
8 12 11 -1.6046 -1.6004
8 12 12 19.3009 -11.5935
8 12 13 6.6263 6.5382
8 12 14 -9.8794 -0.4335
8 12 15 -1.1479 3.7458
8 12 16 -10.1206 6.2996
8 12 17 5.9796 3.1940
8 12 18 10.0582 -10.6113
8 12 19 -2.4013 8.4452
8 12 20 -8.6639 -6.1238
8 13 0 5.0083 1.9552
8 13 1 -7.5773 14.5802
8 13 2 18.1469 -3.9150
8 13 3 -10.5162 11.1199
8 13 4 -0.1745 12.7793
8 13 5 -3.0643 6.1362
8 13 6 -3.2600 -5.7756
8 13 7 1.8329 4.4858
8 13 8 -12.7767 -0.1346
8 13 9 8.2705 -14.1171
8 13 10 5.9098 -20.9606
8 13 11 0.5453 4.8266
8 13 12 12.1796 5.1490
8 13 13 -5.1032 -9.0210
8 13 14 5.9721 -4.7153
8 13 15 -4.3896 -10.0120
8 13 16 4.4583 0.8673
8 13 17 8.3584 5.3426
8 13 18 -5.1301 -2.6165
8 13 19 2.9927 7.9445
8 14 0 -16.8883 11.4228
8 14 1 6.4337 -2.4719
8 14 2 -23.9428 13.5460
8 14 3 -1.9172 -1.9110
8 14 4 -4.0283 4.4973
8 14 5 3.5107 -2.3505
8 14 6 3.8670 13.2729
8 14 7 2.5793 -1.7045
8 14 8 -4.1702 3.0178
8 14 9 -0.3655 -6.4106
8 14 10 -10.3227 4.6434
8 14 11 8.1816 -4.0525
8 14 12 -11.5339 -18.3671
8 14 13 8.0594 -7.5335
8 14 14 1.7997 21.5966
8 14 15 3.6366 9.4165
8 14 16 -2.0282 5.7806
8 14 17 -6.8054 3.0976
8 14 18 -16.2098 15.0417
8 15 0 0.6242 3.9200
8 15 1 4.6340 11.4832
8 15 2 4.0863 -4.5030
8 15 3 1.8460 6.5455
8 15 4 20.9737 -7.9113
8 15 5 -5.0706 -11.9282
8 15 6 4.5358 -1.4314
8 15 7 6.2097 -11.5884
8 15 8 13.8073 -11.1596
8 15 9 13.0921 -12.5950
8 15 10 -5.1620 -8.2551
8 15 11 10.2747 -18.5044
8 15 12 -9.0865 1.7555
8 15 13 20.3953 -12.3864
8 15 14 -6.6050 1.7371
8 15 15 23.2138 6.9168
8 15 16 -0.0202 1.4371
8 15 17 2.6089 -4.0861
8 16 0 0.2549 5.1044
8 16 1 -3.9219 3.9211
8 16 2 -18.2268 -12.3745
8 16 3 8.7567 -2.0542
8 16 4 -0.2062 -7.2496
8 16 5 0.8165 3.2541
8 16 6 5.3089 -5.3705
8 16 7 3.9300 1.9522
8 16 8 8.8642 -15.1053
8 16 9 -6.4746 5.1889
8 16 10 -2.4228 -1.7528
8 16 11 -4.3899 -10.1913
8 16 12 0.8375 1.6350
8 16 13 10.2449 -1.8920
8 16 14 6.2139 -3.6699
8 16 15 3.6908 -1.0064
8 16 16 -3.1933 10.0590
8 17 0 8.4001 8.7956
8 17 1 -9.5249 2.8495
8 17 2 -2.5269 -2.3045
8 17 3 -4.9429 -2.5562
8 17 4 3.4809 5.3355
8 17 5 -6.1220 -11.7270
8 17 6 7.0115 7.9693
8 17 7 5.8777 -11.3329
8 17 8 10.8315 3.8101
8 17 9 -10.4875 5.6149
8 17 10 4.2000 4.0502
8 17 11 4.7729 -9.8961
8 17 12 3.1100 10.7288
8 17 13 21.9536 1.2135
8 17 14 -7.0658 -1.3255
8 17 15 3.8981 8.3429
8 18 0 6.6377 -2.1500
8 18 1 1.7437 0.3838
8 18 2 -1.6044 10.0490
8 18 3 2.4117 -5.0504
8 18 4 5.1959 -1.0518
8 18 5 0.6822 0.1785
8 18 6 -6.3868 -14.7131
8 18 7 -0.2083 -0.6459
8 18 8 6.1347 -3.2745
8 18 9 4.6190 1.8156
8 18 10 -4.2918 1.8554
8 18 11 -7.4187 -0.3001
8 18 12 5.0981 -2.2696
8 18 13 -2.1572 -2.8801
8 18 14 -0.0690 7.5167
8 19 0 -7.3149 -6.2974
8 19 1 10.4212 -0.1225
8 19 2 3.3033 4.2892
8 19 3 -7.1256 13.8766
8 19 4 0.0117 -2.0023
8 19 5 -3.1741 -1.2812
8 19 6 5.9025 4.5927
8 19 7 3.8323 -1.3769
8 19 8 1.9449 -3.9272
8 19 9 0.1059 -11.8924
8 19 10 0.8288 3.1679
8 19 11 5.6269 -9.9139
8 19 12 -0.9987 6.2352
8 20 0 -11.2318 0.4065
8 20 1 0.9295 -0.4160
8 20 2 7.8775 -8.6400
8 20 3 -0.0556 4.3637
8 20 4 6.3454 2.8086
8 20 5 0.2167 2.7544
8 20 6 -0.1102 3.4439
8 20 7 -0.7256 -3.5797
8 20 8 -1.3021 6.1579
8 20 9 -4.8823 -1.0054
8 20 10 3.2449 0.3276
8 20 11 0.1570 -10.9853
8 21 0 1.8178 -1.8775
8 21 1 11.8046 1.2018
8 21 2 -0.1002 0.9648
8 21 3 2.0607 6.4472
8 21 4 7.3816 1.0918
8 21 5 -10.9156 9.8227
8 21 6 -1.2206 0.9336
8 21 7 3.9039 -0.5535
8 21 8 -5.2633 -7.2865
8 22 0 -5.9627 -7.8179
8 22 1 3.5132 1.2727
8 22 2 2.7950 -14.0835
8 22 3 -5.0366 -1.3822
8 22 4 9.3232 -4.4765
8 22 5 -2.6245 3.4793
9 0 0 12.3082 -9.8529
9 0 2 10.9021 0.1011
9 0 4 -0.1776 8.7391
9 0 6 6.1113 -0.8087
9 0 8 -0.8291 -1.8057
9 0 10 1.4982 -7.1532
9 0 12 11.2920 2.1446
9 0 14 -7.7951 0.4786
9 0 16 0.2886 3.5500
9 0 18 -6.4608 5.8890
9 0 20 2.9020 6.2533
9 0 22 2.0317 4.2645
9 1 0 -0.0926 3.2658
9 1 1 0.1003 -0.0065
9 1 2 -13.2271 -9.5761
9 1 3 -31.0832 14.0865
9 1 4 2.6893 -6.9335
9 1 5 -3.2451 -0.3158
9 1 6 2.7442 8.5426
9 1 7 -3.5062 6.3898
9 1 8 -19.0658 1.5717
9 1 9 -8.1478 0.9362
9 1 10 -0.8331 -9.9831
9 1 11 -3.3740 -6.7451
9 1 12 -2.0548 -13.1946
9 1 13 2.0663 7.8003
9 1 14 8.0298 -1.0569
9 1 15 4.4704 -10.8957
9 1 16 -10.1182 13.7904
9 1 17 -6.5166 -6.7493
9 1 18 -4.2833 0.3626
9 1 19 14.6348 -9.1177
9 1 20 11.1493 1.0720
9 1 21 -0.4725 8.1062
9 1 22 3.3368 -8.8195
9 1 23 -3.7667 -2.1369
9 2 0 -0.9156 5.0571
9 2 1 1.3714 -3.6419
9 2 2 -1.0961 6.5957
9 2 3 -11.8939 -8.0252
9 2 4 2.1099 3.3824
9 2 5 1.7567 31.5631
9 2 6 -2.6697 -0.3449
9 2 7 -3.3896 14.5157
9 2 8 3.7565 -2.4577
9 2 9 -7.0354 6.8031
9 2 10 0.4572 1.0214
9 2 11 16.7146 -8.4712
9 2 12 0.1813 -1.6695
9 2 13 7.2150 7.0253
9 2 14 4.6179 4.4906
9 2 15 -8.3443 -10.0634
9 2 16 -5.2841 -1.1559
9 2 17 15.8916 -2.0001
9 2 18 -0.6666 -1.5281
9 2 19 8.5302 5.1740
9 2 20 6.0114 1.8198
9 2 21 -5.1236 7.7647
9 2 22 -2.3758 0.8718
9 2 23 -1.3615 -5.0264
9 3 0 17.7290 -10.1736
9 3 1 11.5955 -5.5364
9 3 2 -1.7900 -1.1507
9 3 3 -0.8445 6.8984
9 3 4 10.5454 -6.5451
9 3 5 -11.3169 9.8706
9 3 6 10.9228 29.7739
9 3 7 3.6325 1.8300
9 3 8 -2.3660 -4.2965
9 3 9 -0.6674 8.2509
9 3 10 2.1995 -14.2522
9 3 11 -17.2932 1.8781
9 3 12 12.3028 -2.9822
9 3 13 -1.6128 -12.8391
9 3 14 3.1779 5.2467
9 3 15 1.4221 -4.1209
9 3 16 1.5586 -4.7776
9 3 17 9.4826 -2.1759
9 3 18 3.2228 -7.1344
9 3 19 0.9776 5.5121
9 3 20 -3.7301 -1.0504
9 3 21 -0.6308 2.1739
9 3 22 -0.7017 10.0482
9 3 23 5.2581 -1.9392
9 4 0 1.5185 4.6338
9 4 1 13.2273 -5.5575
9 4 2 2.4185 9.2393
9 4 3 -3.1397 14.6688
9 4 4 5.1372 -0.3327
9 4 5 -2.2045 -3.5539
9 4 6 4.3007 3.7231
9 4 7 -30.8589 16.8198
9 4 8 -9.3700 -0.2970
9 4 9 -16.7483 -11.3158
9 4 10 3.8382 1.3575
9 4 11 6.6229 -5.3582
9 4 12 -0.5809 5.2111
9 4 13 17.2617 -9.5189
9 4 14 2.0191 1.2604
9 4 15 20.4679 -0.6159
9 4 16 -0.9505 5.4833
9 4 17 1.6152 6.0552
9 4 18 5.9307 0.0563
9 4 19 -8.0868 4.6206
9 4 20 -8.3754 -3.5846
9 4 21 -1.9584 1.6030
9 4 22 -7.8522 4.9134
9 4 23 -2.7815 3.7402
9 5 0 -18.2546 7.6875
9 5 1 -0.1998 11.2835
9 5 2 1.9430 16.5034
9 5 3 11.5595 7.1341
9 5 4 11.7835 0.1102
9 5 5 21.6568 1.7955
9 5 6 1.3055 2.8697
9 5 7 1.3716 0.0337
9 5 8 -0.4308 11.3410
9 5 9 5.3056 6.2302
9 5 10 -9.3854 14.3492
9 5 11 0.1059 15.2970
9 5 12 0.8265 2.3093
9 5 13 -1.6004 1.6606
9 5 14 19.7611 8.5760
9 5 15 -15.2616 -3.0872
9 5 16 5.8329 -3.1533
9 5 17 4.9753 -6.4373
9 5 18 -0.8827 15.5140
9 5 19 -2.5101 17.0126
9 5 20 -20.6686 -1.5646
9 5 21 -4.3130 -15.1585
9 5 22 -3.0877 -4.4179
9 6 0 -2.9096 1.9733
9 6 1 29.9722 -13.0121
9 6 2 5.9967 -2.5707
9 6 3 5.3116 -8.5674
9 6 4 -4.6121 -3.7160
9 6 5 6.7901 -0.4818
9 6 6 3.8101 2.9175
9 6 7 -0.4113 8.4273
9 6 8 5.1285 3.8736
9 6 9 -7.9155 1.5779
9 6 10 -3.6643 -2.8447
9 6 11 -5.6577 -5.8729
9 6 12 5.0385 -3.0005
9 6 13 17.7399 -22.4687
9 6 14 -2.9676 3.1825
9 6 15 11.3651 16.3590
9 6 16 6.6855 3.5452
9 6 17 -0.9327 2.6667
9 6 18 -2.3076 0.2326
9 6 19 -0.8830 1.6168
9 6 20 0.1193 5.8905
9 6 21 -5.2251 4.3884
9 6 22 -1.9091 -3.9980
9 7 0 11.7397 -0.5204
9 7 1 -17.1910 13.8935
9 7 2 -4.7965 -0.1608
9 7 3 0.8554 10.8301
9 7 4 -10.9613 6.5400
9 7 5 -10.6829 24.1052
9 7 6 9.2799 10.4825
9 7 7 0.1576 3.2478
9 7 8 -13.3679 21.1118
9 7 9 19.2002 4.3611
9 7 10 -5.5124 6.8047
9 7 11 -7.0568 11.8703
9 7 12 14.9891 4.3313
9 7 13 -2.1614 1.1872
9 7 14 -2.1712 15.3042
9 7 15 15.3156 -0.6131
9 7 16 -11.4041 -3.1359
9 7 17 1.9649 13.8272
9 7 18 -0.1242 0.8982
9 7 19 1.5697 -2.9743
9 7 20 -2.4279 11.2682
9 7 21 1.6535 -0.8200
9 7 22 3.1822 -5.2280
9 8 0 -4.7265 -2.0396
9 8 1 6.8693 -12.6447
9 8 2 -7.9128 -0.1370
9 8 3 35.4685 -9.4797
9 8 4 0.1917 1.5374
9 8 5 10.5387 9.0085
9 8 6 -1.9858 -3.2193
9 8 7 2.0595 -1.2184
9 8 8 1.8324 -2.7549
9 8 9 4.0220 4.4219
9 8 10 -3.2187 3.5532
9 8 11 2.7980 3.2135
9 8 12 -1.7157 2.3059
9 8 13 -4.0313 -8.0605
9 8 14 7.4386 3.4069
9 8 15 1.8755 -6.6553
9 8 16 6.7929 2.3345
9 8 17 7.6155 0.6602
9 8 18 -2.0395 7.0333
9 8 19 0.4748 17.0345
9 8 20 -0.2922 -0.6577
9 8 21 -2.1856 6.7674
9 9 0 -14.9287 1.3419
9 9 1 4.7193 -1.3448
9 9 2 -0.2726 -10.4752
9 9 3 -1.6216 4.3452
9 9 4 10.7969 -7.6147
9 9 5 4.6518 8.5548
9 9 6 -5.4325 16.5636
9 9 7 -4.6846 10.1252
9 9 8 -2.0282 -8.9750
9 9 9 -4.6045 1.7543
9 9 10 10.8867 -16.7723
9 9 11 11.1518 -1.0530
9 9 12 10.7817 3.2349
9 9 13 -2.1207 -1.2578
9 9 14 -12.1888 7.7448
9 9 15 -9.1913 8.1840
9 9 16 8.3344 -1.6850
9 9 17 3.5902 8.9272
9 9 18 -1.8561 8.8532
9 9 19 -5.4266 -3.1634
9 9 20 -4.0100 -3.0189
9 9 21 5.2426 11.5555
9 10 0 0.1473 -2.7872
9 10 1 1.4536 -3.3565
9 10 2 -5.9583 7.3953
9 10 3 6.7781 7.0287
9 10 4 -4.3532 -11.6523
9 10 5 5.2826 5.5178
9 10 6 2.7688 -3.2680
9 10 7 -1.7017 -18.6874
9 10 8 -1.8579 -1.9253
9 10 9 -8.6948 -2.1386
9 10 10 3.9571 -0.8562
9 10 11 -7.8652 -18.0200
9 10 12 4.1591 -4.5558
9 10 13 -7.1552 12.3244
9 10 14 -0.3703 -0.1953
9 10 15 2.4202 14.7722
9 10 16 0.1965 2.4738
9 10 17 -3.6234 8.7671
9 10 18 4.2982 3.8855
9 10 19 -1.3981 -0.6347
9 10 20 -5.1893 -5.4494
9 10 21 -2.0905 -5.2098
9 11 0 6.7334 -12.0960
9 11 1 5.3601 -7.8414
9 11 2 -0.3163 -0.5715
9 11 3 -1.4253 6.5589
9 11 4 -5.3961 -0.1129
9 11 5 -7.7705 14.5171
9 11 6 -2.9607 -15.3803
9 11 7 -5.8591 11.5745
9 11 8 5.2068 -15.7872
9 11 9 -3.1361 2.7947
9 11 10 14.5854 -13.0964
9 11 11 6.9835 7.0545
9 11 12 6.1714 -4.0102
9 11 13 -0.7322 18.5935
9 11 14 -2.4838 -8.1569
9 11 15 13.7352 -12.3922
9 11 16 2.5275 -4.3931
9 11 17 -6.7290 9.3425
9 11 18 2.3283 -5.3960
9 11 19 -3.6483 4.8923
9 11 20 2.8604 -11.2393
9 12 0 5.0858 1.5298
9 12 1 7.7898 2.1709
9 12 2 -3.1424 7.0136
9 12 3 -4.7295 -7.5987
9 12 4 -0.5359 4.3340
9 12 5 -7.5023 -0.3147
9 12 6 2.5005 1.1277
9 12 7 -8.7788 -2.5448
9 12 8 3.0744 -2.2396
9 12 9 6.1272 -4.2087
9 12 10 -2.1194 -3.5594
9 12 11 -3.5003 8.6814
9 12 12 -4.2418 -3.0360
9 12 13 6.9789 14.9659
9 12 14 -5.8998 4.4430
9 12 15 -11.8872 -2.3493
9 12 16 0.0749 -5.1389
9 12 17 2.4413 -0.8582
9 12 18 9.1766 3.3952
9 12 19 -7.5128 -5.1114
9 13 0 -2.5659 -3.7232
9 13 1 -11.9581 -3.4213
9 13 2 13.1151 -5.1373
9 13 3 5.0459 -11.5585
9 13 4 8.5303 -0.3973
9 13 5 7.8355 1.9388
9 13 6 12.1126 -3.8971
9 13 7 -4.4849 3.8771
9 13 8 -2.5969 6.2800
9 13 9 -21.9457 -2.7040
9 13 10 -7.8805 0.8236
9 13 11 6.6135 -8.1515
9 13 12 -2.3657 3.8551
9 13 13 -8.0542 -1.2085
9 13 14 -2.7321 -2.6322
9 13 15 6.4836 -2.5535
9 13 16 -12.3654 4.6796
9 13 17 3.9544 0.6999
9 13 18 -9.2414 -4.6334
9 13 19 -2.2124 -13.1381
9 14 0 5.6997 -3.1010
9 14 1 -12.4243 0.4510
9 14 2 0.9100 -10.9809
9 14 3 9.1782 -3.2620
9 14 4 3.7452 -3.1998
9 14 5 -5.6036 -14.1011
9 14 6 -3.9369 -4.9393
9 14 7 4.0799 -21.8677
9 14 8 -5.5066 -8.9402
9 14 9 14.8599 -11.0135
9 14 10 -3.6416 -0.9190
9 14 11 -4.5514 8.0038
9 14 12 -5.9662 -1.5901
9 14 13 -7.8300 -5.3768
9 14 14 -3.4804 4.8222
9 14 15 -3.0605 -9.9038
9 14 16 -12.7042 -4.1078
9 14 17 3.3854 6.6124
9 14 18 -10.4290 -12.7071
9 15 0 4.5045 -4.8837
9 15 1 -5.7168 12.7330
9 15 2 -9.4082 -2.7586
9 15 3 -1.3481 -7.2354
9 15 4 -2.8654 -0.6001
9 15 5 7.4721 0.5168
9 15 6 6.4296 12.7281
9 15 7 2.0130 -2.5182
9 15 8 4.4440 14.2741
9 15 9 -0.3520 2.4986
9 15 10 6.3846 -8.3603
9 15 11 -13.0330 -6.6285
9 15 12 13.4723 14.4755
9 15 13 10.0603 -5.7493
9 15 14 -6.8012 3.1063
9 15 15 3.0179 -2.9980
9 15 16 -3.3621 -5.0611
9 15 17 -3.9269 -2.8597
9 16 0 -1.4559 -2.0343
9 16 1 9.2706 -11.9332
9 16 2 -1.4153 -3.0179
9 16 3 -11.1772 -3.9899
9 16 4 -1.2875 1.0045
9 16 5 3.1726 -11.0839
9 16 6 -4.2922 -5.5564
9 16 7 4.4018 2.5551
9 16 8 2.1657 -2.7391
9 16 9 11.9290 2.6675
9 16 10 0.8181 5.7028
9 16 11 11.6009 6.8825
9 16 12 -6.2090 11.1470
9 16 13 -16.3179 -8.7413
9 16 14 -1.1848 11.7413
9 16 15 9.7400 -7.5832
9 16 16 -12.4168 1.2945
9 17 0 -5.1435 10.4696
9 17 1 -3.0364 -9.7368
9 17 2 -11.5569 14.1080
9 17 3 -4.8946 2.6037
9 17 4 -5.6508 -1.8741
9 17 5 -4.4188 -13.4114
9 17 6 7.8523 -6.2841
9 17 7 -3.0434 -3.4496
9 17 8 -6.4708 6.6734
9 17 9 5.3286 -4.5381
9 17 10 15.7419 -3.4711
9 17 11 -0.0079 13.6652
9 17 12 5.8337 14.0419
9 17 13 -17.0729 0.0847
9 17 14 -2.4584 -1.4307
9 17 15 -5.8836 -5.5981
9 18 0 -5.4948 3.8807
9 18 1 -1.3047 -5.8762
9 18 2 2.4699 0.9950
9 18 3 -2.2453 -3.9376
9 18 4 4.4493 -2.0158
9 18 5 0.8991 -3.2688
9 18 6 -0.0123 5.7659
9 18 7 1.4712 4.1626
9 18 8 0.3863 5.6703
9 18 9 0.7638 7.7274
9 18 10 -8.2270 7.5582
9 18 11 2.3173 8.0456
9 18 12 2.0851 8.8523
9 18 13 0.6087 9.9841
9 19 0 -2.3403 -3.5358
9 19 1 6.3265 4.8995
9 19 2 -9.2899 0.0687
9 19 3 -5.7879 -7.3508
9 19 4 0.3023 -4.3854
9 19 5 -4.1374 -8.9584
9 19 6 -0.1351 4.4476
9 19 7 6.6582 -3.2609
9 19 8 0.9236 -17.7002
9 19 9 11.6896 5.2478
9 19 10 2.8202 -4.6796
9 19 11 4.7331 3.6359
9 19 12 -2.8537 -10.3300
9 20 0 -1.4561 -3.6492
9 20 1 -2.0421 -10.7533
9 20 2 -4.0575 -1.4637
9 20 3 8.1201 -0.5464
9 20 4 2.9218 -0.9545
9 20 5 -4.4450 1.3333
9 20 6 8.1194 3.8440
9 20 7 3.2480 0.1630
9 20 8 3.8987 -5.8830
9 20 9 0.8736 -6.4920
9 20 10 8.2479 -2.2456
9 21 0 2.8165 -8.3411
9 21 1 -4.4929 -3.2711
9 21 2 -0.1387 -4.5439
9 21 3 -7.5882 -2.6015
9 21 4 2.4468 -5.2717
9 21 5 -0.7646 -12.0494
9 21 6 3.3456 -5.2422
9 21 7 13.1907 -3.1552
9 22 0 -1.8589 1.1562
9 22 1 -0.7327 -3.9206
9 22 2 3.9751 3.6156
9 22 3 -5.8973 -0.9943
10 0 0 -11.3917 -8.8587
10 0 2 -17.9004 -18.1624
10 0 4 14.0836 -5.9248
10 0 6 -2.6186 0.9360
10 0 8 2.9588 9.9972
10 0 10 9.1732 -14.9602
10 0 12 40.8202 -13.6755
10 0 14 -31.0854 15.6564
10 0 16 -0.2437 -18.3391
10 0 18 -16.6516 13.7757
10 0 20 -5.9283 -8.8660
10 0 22 -2.8046 -8.2906
10 1 0 -15.7069 -5.6082
10 1 1 -24.5863 -9.3094
10 1 2 -14.8842 6.5610
10 1 3 -10.0834 21.4753
10 1 4 -3.3801 9.8374
10 1 5 4.4097 6.7034
10 1 6 15.6945 -0.0755
10 1 7 9.3422 -12.9562
10 1 8 7.0016 7.3157
10 1 9 -12.6630 0.3553
10 1 10 0.3082 7.9213
10 1 11 6.4155 4.8194
10 1 12 -4.0661 -11.6516
10 1 13 1.0930 -6.8987
10 1 14 4.1114 -11.7147
10 1 15 -8.7780 -0.1820
10 1 16 -4.1717 6.2287
10 1 17 0.9629 5.9109
10 1 18 -3.9317 -4.0199
10 1 19 -9.3345 7.3698
10 1 20 -8.0047 -1.7887
10 1 21 0.8875 8.6439
10 1 22 0.0981 -7.5099
10 1 23 3.6279 -3.0787
10 2 0 -1.7260 20.4174
10 2 1 -1.0783 -1.2867
10 2 2 -10.4419 11.6872
10 2 3 3.6481 -6.8917
10 2 4 15.1104 -2.0592
10 2 5 4.7676 1.4987
10 2 6 17.6782 10.4952
10 2 7 0.8403 -0.8596
10 2 8 22.4500 -6.0898
10 2 9 13.3052 -0.3873
10 2 10 12.2210 4.7389
10 2 11 5.6227 -4.4595
10 2 12 7.8031 12.7491
10 2 13 1.4152 -0.6063
10 2 14 8.2798 5.1788
10 2 15 1.0068 -6.3566
10 2 16 -11.0431 -0.5535
10 2 17 9.6912 -5.9850
10 2 18 -12.0957 -11.8878
10 2 19 -6.4760 2.4779
10 2 20 -5.0896 -10.3742
10 2 21 0.3913 2.3366
10 2 22 9.3065 5.1926
10 3 0 -3.5448 8.7336
10 3 1 -7.0845 -2.8237
10 3 2 17.6214 5.5687
10 3 3 4.1732 -16.6411
10 3 4 -4.9770 -0.5252
10 3 5 -5.5421 -3.9092
10 3 6 -23.3038 -1.1819
10 3 7 -4.7755 3.0868
10 3 8 -5.3853 -8.3521
10 3 9 7.4517 10.8795
10 3 10 -3.9379 0.4870
10 3 11 7.4048 -1.9488
10 3 12 -0.3401 -10.5844
10 3 13 19.6201 -1.9974
10 3 14 6.7000 -6.1422
10 3 15 12.9664 -9.7922
10 3 16 14.3456 -16.9512
10 3 17 2.7909 -2.0447
10 3 18 5.1995 15.0109
10 3 19 -7.5155 0.8351
10 3 20 3.5728 -7.4223
10 3 21 4.4179 -4.3612
10 3 22 8.1829 4.0255
10 4 0 19.4156 11.7270
10 4 1 0.8665 1.9748
10 4 2 -6.6299 -3.5198
10 4 3 0.2530 -3.5811
10 4 4 -8.2039 -3.0004
10 4 5 -1.8080 -3.7978
10 4 6 -3.5851 11.5498
10 4 7 1.6231 -9.3332
10 4 8 -5.2514 -1.1516
10 4 9 -4.7326 -6.1913
10 4 10 13.0815 2.4148
10 4 11 0.3777 -1.2194
10 4 12 1.6927 0.0201
10 4 13 3.6852 0.8846
10 4 14 -1.2488 -0.6294
10 4 15 -3.9315 2.9348
10 4 16 1.3666 -4.8854
10 4 17 -5.8071 -3.3074
10 4 18 2.5109 5.4820
10 4 19 5.8019 -8.2000
10 4 20 -3.8759 -8.3884
10 4 21 1.3189 -3.3839
10 4 22 2.4177 -10.1959
10 5 0 1.7606 -6.0108
10 5 1 12.6771 0.9247
10 5 2 -6.9334 -7.8036
10 5 3 -8.0426 -3.8463
10 5 4 2.9274 -2.8875
10 5 5 -0.9064 -11.0675
10 5 6 1.3329 -14.8637
10 5 7 7.3677 -0.0259
10 5 8 16.6701 -13.7425
10 5 9 -3.7783 -6.4574
10 5 10 13.4443 -0.8592
10 5 11 5.7319 -12.3716
10 5 12 3.0983 13.3567
10 5 13 18.3544 -5.2844
10 5 14 -10.9255 3.9164
10 5 15 -1.0265 14.7189
10 5 16 2.0357 -7.2135
10 5 17 6.2806 14.6489
10 5 18 2.8193 -13.8440
10 5 19 6.1268 17.1888
10 5 20 8.0902 -9.7832
10 5 21 -3.0999 -5.9839
10 5 22 5.0328 1.2270
10 6 0 -10.8478 -6.2804
10 6 1 -3.6279 4.5650
10 6 2 8.3303 1.8237
10 6 3 5.3591 -0.4387
10 6 4 23.5419 6.2671
10 6 5 5.7378 4.4421
10 6 6 -3.3835 0.5513
10 6 7 1.0293 -0.6946
10 6 8 -6.4334 -5.7816
10 6 9 0.9402 -2.2023
10 6 10 -10.5814 -19.8110
10 6 11 -0.7100 -6.1805
10 6 12 -3.4744 -13.1227
10 6 13 -2.0717 7.6774
10 6 14 3.4073 -12.3381
10 6 15 1.1459 -7.9051
10 6 16 -2.3040 -3.5985
10 6 17 7.6156 -4.4825
10 6 18 -2.6040 -0.9585
10 6 19 5.9355 2.0238
10 6 20 -13.4350 -6.1483
10 6 21 0.0678 -0.0760
10 6 22 6.3521 -9.9414
10 7 0 6.4111 -11.9610
10 7 1 -8.8634 -3.7122
10 7 2 1.9027 2.9691
10 7 3 -4.3457 -0.5999
10 7 4 -14.5825 -6.3398
10 7 5 -8.7118 5.8875
10 7 6 -14.0670 -5.8795
10 7 7 0.6204 1.5100
10 7 8 -1.1224 -11.6572
10 7 9 6.3405 0.6842
10 7 10 3.1394 -1.7645
10 7 11 -3.2251 3.8025
10 7 12 3.3143 11.1561
10 7 13 -13.2929 11.1315
10 7 14 -7.6850 2.1906
10 7 15 13.0612 4.4489
10 7 16 -3.6032 -5.5909
10 7 17 4.9005 18.0039
10 7 18 6.0628 -2.6288
10 7 19 -11.9430 5.1430
10 7 20 8.0006 -0.6020
10 7 21 -10.8408 10.8121
10 8 0 15.8055 15.9670
10 8 1 -2.3441 2.4171
10 8 2 13.5545 -8.1032
10 8 3 -0.7976 -1.1888
10 8 4 35.4334 10.4539
10 8 5 5.1762 1.3047
10 8 6 4.1765 18.7989
10 8 7 -7.7925 5.7635
10 8 8 2.2312 -6.1246
10 8 9 2.8699 9.3167
10 8 10 -2.7307 -2.0142
10 8 11 2.5261 2.5763
10 8 12 10.9710 5.9767
10 8 13 -3.9823 9.0470
10 8 14 -0.3065 15.1596
10 8 15 -3.4656 -0.7156
10 8 16 7.0653 3.9972
10 8 17 9.1604 6.9293
10 8 18 -11.8125 -4.6978
10 8 19 0.5445 4.2504
10 8 20 10.3528 -4.5471
10 8 21 0.2707 0.8528
10 9 0 12.2029 -7.5190
10 9 1 0.8952 6.0214
10 9 2 2.4324 -1.1487
10 9 3 12.5432 16.2159
10 9 4 -6.5647 8.9871
10 9 5 -5.7923 12.1302
10 9 6 -6.9033 -14.4520
10 9 7 -9.2813 -5.2274
10 9 8 6.2647 -3.8237
10 9 9 -6.0733 11.4520
10 9 10 -7.5878 -2.0042
10 9 11 -13.9676 12.1811
10 9 12 2.0687 0.7171
10 9 13 -7.1559 5.2811
10 9 14 -14.4213 -13.4585
10 9 15 -8.0252 0.6990
10 9 16 7.9025 -3.7176
10 9 17 -4.9905 8.1516
10 9 18 -6.1395 4.1620
10 9 19 -2.1882 7.0289
10 9 20 -7.0735 -0.6044
10 10 0 -2.4700 -6.6908
10 10 1 2.3137 -3.2973
10 10 2 5.5350 5.7098
10 10 3 -0.8814 -11.0232
10 10 4 16.1251 9.8014
10 10 5 -1.1865 4.7891
10 10 6 11.1063 19.3223
10 10 7 2.5949 3.1013
10 10 8 -3.5745 -4.6027
10 10 9 -5.6523 -4.7657
10 10 10 7.8419 -1.3120
10 10 11 -0.1150 6.2640
10 10 12 -3.3343 1.3357
10 10 13 11.9331 0.3751
10 10 14 -2.3173 3.9846
10 10 15 7.1751 8.0442
10 10 16 -6.0165 5.2083
10 10 17 -0.1485 -3.7715
10 10 18 -3.7552 -2.8268
10 10 19 -6.6795 10.4862
10 10 20 -4.0582 6.1535
10 11 0 -0.0280 -16.5704
10 11 1 11.2634 -0.9653
10 11 2 -1.6491 -19.8058
10 11 3 1.8075 -2.3955
10 11 4 8.5993 -4.3314
10 11 5 -9.8105 7.2781
10 11 6 10.7999 -2.8787
10 11 7 4.4123 7.6085
10 11 8 6.1154 9.6647
10 11 9 4.9747 5.6601
10 11 10 5.1027 -6.0498
10 11 11 18.5569 7.0929
10 11 12 -2.0331 3.1494
10 11 13 4.8035 3.4214
10 11 14 -4.7102 0.4995
10 11 15 11.0939 18.3409
10 11 16 -12.3949 9.0484
10 11 17 -1.6865 -4.0324
10 11 18 -13.7257 -4.6209
10 11 19 9.2349 -4.5431
10 12 0 15.1656 7.4811
10 12 1 -5.3857 -6.7327
10 12 2 17.3354 3.9516
10 12 3 2.5121 -0.8206
10 12 4 7.7104 12.0650
10 12 5 2.8597 -1.6185
10 12 6 10.5409 5.5212
10 12 7 -2.4367 8.7079
10 12 8 2.6977 4.2660
10 12 9 -3.9310 8.9828
10 12 10 4.6230 6.8625
10 12 11 1.5156 -0.6842
10 12 12 -8.0425 2.9205
10 12 13 4.2477 3.2867
10 12 14 -1.4094 -10.6640
10 12 15 4.0253 6.8020
10 12 16 0.8364 -8.6037
10 12 17 -2.9945 9.6222
10 12 18 13.9455 -2.2559
10 12 19 8.3242 1.1792
10 13 0 -3.5647 5.8849
10 13 1 -6.5591 -10.6577
10 13 2 -1.7607 -15.4543
10 13 3 9.6275 -5.5168
10 13 4 -10.7984 -15.5810
10 13 5 2.0970 2.8297
10 13 6 -0.0639 4.0520
10 13 7 -0.3279 -4.6130
10 13 8 -9.4816 -7.2271
10 13 9 3.5312 -3.8998
10 13 10 -2.1778 15.6210
10 13 11 7.2821 -6.9114
10 13 12 0.1599 12.6864
10 13 13 4.8593 -4.2394
10 13 14 -2.5151 12.7726
10 13 15 4.9270 -14.1816
10 13 16 -0.7771 -10.3831
10 13 17 1.6985 5.3695
10 13 18 14.6935 2.1688
10 14 0 1.4696 -9.8351
10 14 1 3.0974 -3.7360
10 14 2 -6.6452 12.1513
10 14 3 -2.3720 0.9773
10 14 4 -7.2806 -8.2326
10 14 5 2.0781 3.1569
10 14 6 0.1521 5.8641
10 14 7 1.1762 9.7838
10 14 8 -1.2396 -0.3145
10 14 9 2.0992 6.2798
10 14 10 -4.2311 -7.7306
10 14 11 0.2643 14.2856
10 14 12 -5.5380 -17.2321
10 14 13 15.7199 -5.0518
10 14 14 9.6943 -10.3902
10 14 15 -4.2344 6.0171
10 14 16 5.0445 6.7699
10 14 17 8.6778 -10.9285
10 15 0 -5.0629 -5.8777
10 15 1 -2.1984 0.2381
10 15 2 -3.9750 0.1631
10 15 3 10.2863 8.0053
10 15 4 8.4116 -1.9375
10 15 5 7.4211 -2.2861
10 15 6 5.4348 0.8846
10 15 7 2.0283 1.6052
10 15 8 0.4802 6.6683
10 15 9 9.5005 2.6749
10 15 10 5.7872 -9.1795
10 15 11 11.1088 6.9882
10 15 12 -2.2561 -11.4891
10 15 13 4.6590 4.9218
10 15 14 5.3904 4.3842
10 15 15 -5.4993 6.6716
10 15 16 6.5464 -1.1268
10 16 0 5.7162 15.7360
10 16 1 1.3761 -4.2961
10 16 2 -1.3616 7.2630
10 16 3 -4.7194 0.3415
10 16 4 1.5718 -2.2258
10 16 5 0.6935 5.6032
10 16 6 6.6856 7.6224
10 16 7 -0.9671 4.2501
10 16 8 10.6403 -6.7626
10 16 9 3.5114 -4.6794
10 16 10 7.4054 -5.1246
10 16 11 9.4613 0.2710
10 16 12 8.2403 -7.6013
10 16 13 -17.8931 5.8505
10 16 14 12.7281 4.8005
10 16 15 8.2713 -8.3506
10 17 0 -11.3655 2.3118
10 17 1 4.7799 -6.4006
10 17 2 2.7959 -4.3984
10 17 3 11.2886 2.4496
10 17 4 -7.0148 -14.3896
10 17 5 10.3398 11.7947
10 17 6 6.4316 -3.5951
10 17 7 0.8046 6.2706
10 17 8 -8.3813 1.8959
10 17 9 -6.0269 2.6751
10 17 10 -5.3259 -1.4885
10 17 11 -12.8175 -0.0528
10 17 12 -8.1630 0.1409
10 17 13 6.0203 12.4540
10 17 14 12.3144 -15.3605
10 18 0 -6.1014 4.4313
10 18 1 -0.7214 5.3984
10 18 2 -7.5276 -4.6339
10 18 3 -0.2360 -0.4054
10 18 4 -0.1976 13.2862
10 18 5 9.4811 0.0645
10 18 6 -2.4769 -11.3325
10 18 7 -7.5250 -3.9123
10 18 8 -1.2053 0.6464
10 18 9 -1.3643 1.7019
10 18 10 3.3389 -3.0621
10 18 11 -11.8027 1.3087
10 18 12 8.9293 9.8974
10 19 0 3.7425 -0.1959
10 19 1 -1.5938 4.2664
10 19 2 -13.1574 3.1781
10 19 3 -8.0397 2.3772
10 19 4 -1.8045 -8.6744
10 19 5 -3.5104 4.5623
10 19 6 7.8761 -1.0733
10 19 7 -5.7348 6.7894
10 19 8 -4.0184 3.5080
10 19 9 -4.7746 8.6975
10 19 10 -6.1702 -8.9256
10 19 11 -5.7528 -0.5613
10 20 0 -6.8105 -0.2157
10 20 1 -0.7249 2.2084
10 20 2 -0.7636 -0.1413
10 20 3 -6.5586 2.3024
10 20 4 0.9369 0.1217
10 20 5 -2.6556 4.7426
10 20 6 -2.3062 -0.2779
10 20 7 1.6264 8.7435
10 20 8 -6.1591 -7.3571
10 21 0 1.0517 8.2736
10 21 1 1.4229 -4.9557
10 21 2 1.8790 2.8818
10 21 3 5.6858 5.9371
10 21 4 5.6054 -1.3132
10 21 5 4.8965 -2.8041
11 0 0 6.5878 7.1326
11 0 2 4.7945 -5.3157
11 0 4 4.5989 -3.9069
11 0 6 -0.9276 -8.5507
11 0 8 13.9874 -12.4078
11 0 10 -2.7872 -1.0527
11 0 12 -3.4716 5.6373
11 0 14 6.6878 -4.6641
11 0 16 -7.2912 2.2895
11 0 18 -4.6554 1.7437
11 0 20 -7.7347 -0.9674
11 0 22 -2.7578 -5.9770
11 1 0 -6.8751 13.8951
11 1 1 2.5100 -10.6891
11 1 2 17.0787 0.1815
11 1 3 -14.3478 -16.8020
11 1 4 -2.7205 4.5418
11 1 5 -5.6315 12.6329
11 1 6 2.4321 -4.0564
11 1 7 -9.2382 -3.3237
11 1 8 -2.5598 3.2629
11 1 9 9.1087 10.9239
11 1 10 9.5864 -2.9526
11 1 11 8.5051 -2.4331
11 1 12 -6.7703 -4.5014
11 1 13 -11.6778 6.6338
11 1 14 -2.6378 -6.9597
11 1 15 18.3295 -1.9234
11 1 16 -14.9990 -6.9958
11 1 17 9.5885 9.4348
11 1 18 -1.9186 -10.7662
11 1 19 4.1413 -6.5817
11 1 20 9.8089 6.7962
11 1 21 -4.2176 -3.1659
11 1 22 7.1908 -0.7658
11 2 0 -2.0424 -1.8128
11 2 1 3.4596 -10.3289
11 2 2 -2.3653 1.7996
11 2 3 13.0344 -11.4385
11 2 4 2.6574 -0.3779
11 2 5 -9.7688 2.3898
11 2 6 1.0816 -0.3286
11 2 7 -4.3033 7.3749
11 2 8 -1.9818 1.1980
11 2 9 -0.7446 1.0804
11 2 10 -1.1196 4.5710
11 2 11 7.5539 5.7423
11 2 12 3.8404 -6.0504
11 2 13 7.8214 -14.8696
11 2 14 -3.1485 15.0108
11 2 15 24.7474 2.9470
11 2 16 4.9700 -7.6243
11 2 17 -0.7490 8.0735
11 2 18 5.4726 -1.4672
11 2 19 -3.4402 -0.4691
11 2 20 3.2372 2.7113
11 2 21 6.2760 -9.2861
11 2 22 -2.4528 4.3072
11 3 0 -5.8602 12.5758
11 3 1 -2.6763 -5.5332
11 3 2 -25.0111 -0.5026
11 3 3 -0.3040 -0.9611
11 3 4 -5.2986 3.2005
11 3 5 -15.4943 0.2565
11 3 6 -9.3495 1.8227
11 3 7 2.1106 -1.7537
11 3 8 9.0488 -3.3153
11 3 9 -5.9618 -8.2454
11 3 10 3.2160 10.9935
11 3 11 6.3175 -6.1759
11 3 12 -3.2837 5.4514
11 3 13 11.0302 -10.1520
11 3 14 -3.8365 -9.4023
11 3 15 3.3377 -11.4809
11 3 16 5.3782 -4.8159
11 3 17 0.9906 10.9959
11 3 18 15.8775 2.1059
11 3 19 -13.9453 4.8410
11 3 20 -6.2335 14.8376
11 3 21 -5.6430 -3.7927
11 3 22 -12.6568 -0.4663
11 4 0 6.1293 6.4185
11 4 1 9.4139 2.6922
11 4 2 -2.0295 1.8729
11 4 3 -12.4415 7.9682
11 4 4 -1.6962 -1.8398
11 4 5 -0.5547 9.6226
11 4 6 -4.4732 1.2300
11 4 7 -7.6321 -0.4763
11 4 8 1.3162 -0.1238
11 4 9 -1.9134 2.2360
11 4 10 3.7679 9.2531
11 4 11 -5.8744 26.2058
11 4 12 -0.6345 10.8576
11 4 13 -4.1209 12.9774
11 4 14 4.5931 -5.5777
11 4 15 9.1502 16.5152
11 4 16 -0.6632 1.7022
11 4 17 5.5253 18.6506
11 4 18 5.6710 -0.3049
11 4 19 -2.7702 1.6692
11 4 20 0.5901 6.0635
11 4 21 3.7697 1.1235
11 4 22 -2.1806 0.7365
11 5 0 -35.6732 -28.2409
11 5 1 0.3634 0.2013
11 5 2 0.2163 -8.8607
11 5 3 -0.0697 4.4292
11 5 4 -2.6682 7.2584
11 5 5 10.2014 12.6233
11 5 6 -2.5902 -9.1707
11 5 7 -2.1766 2.1562
11 5 8 -5.9333 -11.5823
11 5 9 1.2817 -9.8909
11 5 10 2.2453 -8.7349
11 5 11 2.7083 -3.4442
11 5 12 16.2952 4.0319
11 5 13 -1.7626 -4.7557
11 5 14 28.7615 6.7273
11 5 15 11.4728 -3.7938
11 5 16 20.2346 15.2483
11 5 17 7.4968 -5.4785
11 5 18 4.8890 4.4385
11 5 19 -3.9248 10.5998
11 5 20 9.8971 3.6483
11 5 21 -11.1480 5.8866
11 6 0 -3.2870 -0.4728
11 6 1 1.9997 4.8526
11 6 2 2.0264 7.8092
11 6 3 12.2889 -5.1498
11 6 4 6.8585 -1.8155
11 6 5 -16.0990 2.3499
11 6 6 5.1606 5.7231
11 6 7 -10.6470 -6.2022
11 6 8 1.8994 -2.7371
11 6 9 -3.8155 3.8244
11 6 10 1.3393 -1.6877
11 6 11 -5.7256 2.9018
11 6 12 0.3286 4.1977
11 6 13 -8.1480 9.2660
11 6 14 -1.0573 -8.8258
11 6 15 0.7800 -2.1694
11 6 16 4.5485 0.8612
11 6 17 3.0078 20.0603
11 6 18 9.2944 0.3573
11 6 19 11.1049 6.6067
11 6 20 2.3561 2.4130
11 6 21 1.8724 -0.5107
11 7 0 0.4117 -1.3021
11 7 1 -18.2258 -11.9031
11 7 2 7.5522 -14.0061
11 7 3 -0.1783 1.2613
11 7 4 -2.2791 -6.0948
11 7 5 -17.7824 -12.2382
11 7 6 -1.1099 -8.3664
11 7 7 4.0651 -6.8687
11 7 8 3.7280 -7.8198
11 7 9 1.5175 10.4463
11 7 10 4.2146 -8.2671
11 7 11 -2.4698 -4.2332
11 7 12 9.5172 -8.7218
11 7 13 -8.8282 -4.5893
11 7 14 15.9890 5.3285
11 7 15 5.3470 -2.6618
11 7 16 6.6940 13.1708
11 7 17 -13.6166 -3.6251
11 7 18 -11.7968 11.9124
11 7 19 3.1910 0.2551
11 7 20 -10.1661 6.7548
11 7 21 4.6460 2.8168
11 8 0 -2.7922 0.0235
11 8 1 -10.2507 -12.5861
11 8 2 -6.1823 1.8920
11 8 3 2.8362 11.5274
11 8 4 -4.8987 9.9696
11 8 5 1.5521 7.2483
11 8 6 2.9844 5.4479
11 8 7 -3.4728 -4.0579
11 8 8 -4.2138 7.9463
11 8 9 13.7271 -10.1950
11 8 10 8.5362 -7.9557
11 8 11 11.0721 13.3123
11 8 12 5.4751 -3.3859
11 8 13 11.3049 -1.9204
11 8 14 6.2874 -1.1089
11 8 15 18.3952 1.8309
11 8 16 4.9940 0.8550
11 8 17 4.9669 7.1290
11 8 18 6.1260 4.1794
11 8 19 0.6656 -1.0873
11 8 20 4.7740 3.3191
11 9 0 -15.8907 -5.4681
11 9 1 3.1822 -8.8345
11 9 2 -11.1409 2.2443
11 9 3 16.3888 -18.9040
11 9 4 4.7714 1.8523
11 9 5 0.5355 2.2721
11 9 6 -2.9317 2.7810
11 9 7 -5.5184 -10.4247
11 9 8 -2.4730 5.0280
11 9 9 -0.2113 -13.0297
11 9 10 -9.8110 -4.2519
11 9 11 -2.1601 4.2199
11 9 12 -3.7415 -16.0262
11 9 13 1.2571 -6.1491
11 9 14 14.0024 -6.0867
11 9 15 -6.9364 5.2725
11 9 16 -10.0121 16.6844
11 9 17 -9.9341 3.4874
11 9 18 -9.3226 -7.4642
11 9 19 11.9813 -8.2553
11 9 20 -9.6943 -2.9458
11 10 0 -5.4530 0.2835
11 10 1 6.5102 -2.6459
11 10 2 -3.3826 5.4737
11 10 3 -7.4621 -2.2186
11 10 4 -5.2596 8.2496
11 10 5 1.7987 2.5886
11 10 6 -4.1119 -4.4420
11 10 7 2.0814 13.8470
11 10 8 -5.4536 -0.3121
11 10 9 0.0347 -11.8706
11 10 10 0.6408 1.6029
11 10 11 18.0177 -1.7460
11 10 12 -2.4182 -4.4360
11 10 13 -7.8883 11.7272
11 10 14 6.3838 3.4755
11 10 15 -17.3127 28.4563
11 10 16 -4.0389 3.3906
11 10 17 -8.1582 -0.5620
11 10 18 2.9775 -7.0045
11 10 19 -6.2428 10.4652
11 11 0 -10.2567 21.2276
11 11 1 4.0694 4.3168
11 11 2 -10.1839 -4.1068
11 11 3 -8.1535 14.7715
11 11 4 1.3707 0.1969
11 11 5 2.5666 1.9157
11 11 6 9.6745 3.0936
11 11 7 -7.0966 -1.9344
11 11 8 -0.4449 -5.6525
11 11 9 19.5808 -9.8089
11 11 10 0.8584 -9.7858
11 11 11 -5.1989 -2.2845
11 11 12 -8.5741 -9.0404
11 11 13 5.2226 -13.7415
11 11 14 -6.8973 -10.9944
11 11 15 4.0872 -9.8135
11 11 16 -0.2043 -3.5275
11 11 17 -3.6350 -13.0396
11 11 18 -6.6343 8.8334
11 11 19 -14.0900 -0.6792
11 12 0 -6.9726 -4.3014
11 12 1 2.6940 5.3142
11 12 2 -5.4714 0.0365
11 12 3 4.9526 3.2930
11 12 4 -10.4964 3.6178
11 12 5 -4.1861 1.0606
11 12 6 -0.4387 7.3072
11 12 7 -2.0532 -7.0890
11 12 8 -1.6003 6.7388
11 12 9 -0.0450 -1.8305
11 12 10 0.2797 -2.8363
11 12 11 0.4152 -10.3534
11 12 12 6.4811 -0.8105
11 12 13 4.0967 9.3624
11 12 14 -1.6111 -2.6134
11 12 15 -6.4437 5.6444
11 12 16 7.3279 -5.1890
11 12 17 -7.8172 7.9800
11 12 18 -0.8491 9.0146
11 13 0 -1.5134 -7.1984
11 13 1 16.3949 -3.6710
11 13 2 15.3775 8.9536
11 13 3 4.7820 6.7498
11 13 4 -5.7073 1.7654
11 13 5 -2.8096 14.5445
11 13 6 -7.0527 1.4545
11 13 7 6.8905 -2.9671
11 13 8 5.7952 -0.1557
11 13 9 4.8825 -5.1283
11 13 10 -4.5395 2.5893
11 13 11 9.5387 1.0179
11 13 12 2.6476 -3.9668
11 13 13 2.2286 -6.7763
11 13 14 1.8798 5.2728
11 13 15 -7.1002 -2.7524
11 13 16 6.5823 -4.8992
11 13 17 1.3249 -0.6597
11 14 0 -2.6568 0.6275
11 14 1 -6.4001 -22.8796
11 14 2 4.2315 2.7102
11 14 3 11.5684 1.7627
11 14 4 -2.7348 0.8486
11 14 5 -2.7902 9.7652
11 14 6 -2.9961 -3.5600
11 14 7 -16.6227 -5.6279
11 14 8 -1.5408 -5.3512
11 14 9 4.5982 3.8875
11 14 10 3.3146 -2.0559
11 14 11 -4.3403 10.3070
11 14 12 2.7615 9.7559
11 14 13 5.1933 4.4720
11 14 14 4.6041 -1.1845
11 14 15 3.2867 -2.5117
11 14 16 7.7061 1.1873
11 15 0 14.9178 -9.5593
11 15 1 8.4165 5.6301
11 15 2 4.9200 2.8011
11 15 3 1.5209 10.3342
11 15 4 -9.2549 -11.4570
11 15 5 -2.7899 5.9166
11 15 6 -4.0437 -14.0988
11 15 7 1.5783 7.0955
11 15 8 -3.4754 -4.0616
11 15 9 0.9742 0.9065
11 15 10 3.0707 1.3502
11 15 11 -2.0734 10.4492
11 15 12 7.7491 1.6367
11 15 13 -6.1395 5.5603
11 15 14 -2.4716 -2.5869
11 15 15 -1.5409 6.5220
11 16 0 3.9963 2.2788
11 16 1 -2.2207 -2.3444
11 16 2 -4.7215 -0.9413
11 16 3 13.9135 1.6385
11 16 4 -2.2905 1.1909
11 16 5 -12.9188 -1.3193
11 16 6 -7.6461 -1.4151
11 16 7 1.1617 -2.1176
11 16 8 3.5182 2.0653
11 16 9 -1.0479 11.3035
11 16 10 -5.0458 8.3689
11 16 11 0.2713 10.4376
11 16 12 -2.9098 8.0538
11 16 13 -5.2293 -6.3981
11 16 14 -7.0539 3.1222
11 17 0 -0.8193 -9.1387
11 17 1 -2.6888 -3.8771
11 17 2 -6.1131 8.0918
11 17 3 -2.3731 2.8215
11 17 4 -4.8433 -0.8091
11 17 5 5.4141 1.6404
11 17 6 9.2992 -6.5874
11 17 7 2.4951 -0.6128
11 17 8 -0.8942 -7.0431
11 17 9 3.0365 4.4892
11 17 10 8.4474 3.1368
11 17 11 -3.9807 5.3217
11 17 12 -4.1830 12.8635
11 17 13 -9.6286 -4.0938
11 18 0 -3.9011 -5.2064
11 18 1 -4.0463 0.2510
11 18 2 -0.2776 -0.0973
11 18 3 7.4320 4.3371
11 18 4 -0.6933 0.3003
11 18 5 -7.9822 4.8170
11 18 6 -0.7318 -1.5675
11 18 7 -4.8798 3.5855
11 18 8 -2.8549 1.8585
11 18 9 -3.1641 4.2126
11 18 10 -3.6019 -1.4435
11 18 11 -7.9962 3.9325
11 19 0 9.8221 -12.9507
11 19 1 -9.1857 -1.7632
11 19 2 4.1451 2.1147
11 19 3 10.7027 -9.1558
11 19 4 -3.3858 1.8936
11 19 5 -2.2822 -3.2620
11 19 6 -0.6865 -2.4802
11 19 7 0.2808 -12.6720
11 19 8 6.2619 0.0491
11 19 9 -1.0108 4.0598
11 20 0 2.0543 -1.7168
11 20 1 -0.1083 -9.9055
11 20 2 1.2379 -2.9855
11 20 3 -3.1618 2.2233
11 20 4 0.6386 4.7334
11 20 5 1.3579 3.6330
11 20 6 -3.0129 3.1977
11 20 7 -2.1050 -1.3688
11 21 0 13.1740 0.1612
11 21 1 -1.1610 -8.6818
11 21 2 3.1169 0.5663
11 21 3 -7.2411 -1.4928
12 0 0 21.8418 -15.3429
12 0 2 8.6126 -12.6749
12 0 4 -2.7087 33.7684
12 0 6 -10.4867 4.9819
12 0 8 -9.6453 0.6072
12 0 10 14.6026 -5.8012
12 0 12 -1.5887 18.2554
12 0 14 -15.5370 -7.2015
12 0 16 3.3786 2.6699
12 0 18 -18.2136 -1.0362
12 0 20 -1.7106 -6.6386
12 1 0 4.9364 -14.1592
12 1 1 4.6406 5.9528
12 1 2 4.5807 -3.3001
12 1 3 -8.8364 -12.3527
12 1 4 -0.9137 12.5089
12 1 5 -2.7841 -6.2205
12 1 6 2.2991 -9.0492
12 1 7 9.4390 7.4999
12 1 8 10.2524 -3.4956
12 1 9 -1.6572 2.0457
12 1 10 2.7739 -2.5768
12 1 11 3.7905 -5.3307
12 1 12 4.6884 8.9659
12 1 13 9.4866 5.2140
12 1 14 2.5192 3.8200
12 1 15 7.6760 -3.4037
12 1 16 -6.1726 -4.0833
12 1 17 4.9504 -6.1185
12 1 18 -1.1700 -7.8993
12 1 19 -7.4459 -0.5719
12 1 20 -4.5106 -1.0099
12 1 21 -4.5792 -4.0884
12 2 0 5.6515 0.8953
12 2 1 4.0559 2.9279
12 2 2 -1.0395 4.7180
12 2 3 2.2497 1.0770
12 2 4 12.6444 -1.5998
12 2 5 2.6834 1.6357
12 2 6 -3.6435 17.9083
12 2 7 5.9859 -1.9045
12 2 8 0.8799 0.0952
12 2 9 10.2674 4.7177
12 2 10 6.2201 6.5986
12 2 11 2.2060 3.2282
12 2 12 8.7330 -4.9659
12 2 13 -4.7752 -5.0716
12 2 14 6.8686 10.6654
12 2 15 6.9501 0.1836
12 2 16 -12.6964 2.0408
12 2 17 1.5784 9.9599
12 2 18 3.4892 1.5437
12 2 19 -1.5510 -7.2663
12 2 20 -7.5356 -1.4903
12 2 21 1.4772 -3.1537
12 3 0 -22.3841 4.1517
12 3 1 9.4329 12.4826
12 3 2 6.5835 -3.7561
12 3 3 9.4720 7.2927
12 3 4 -7.4834 5.3477
12 3 5 -0.0877 -1.5881
12 3 6 -6.8218 -7.9198
12 3 7 6.0213 -9.7960
12 3 8 -5.8919 -2.4774
12 3 9 -4.3560 15.0885
12 3 10 9.6420 -0.7905
12 3 11 -4.1372 -0.1025
12 3 12 5.9861 8.3395
12 3 13 -6.4529 4.7864
12 3 14 -8.5459 -3.9359
12 3 15 -3.1744 -3.6875
12 3 16 0.5348 4.8737
12 3 17 -0.4024 -0.0231
12 3 18 -5.8851 8.1943
12 3 19 -10.8095 -6.3200
12 3 20 5.9295 1.2158
12 3 21 -1.3105 10.3435
12 4 0 12.1014 3.4108
12 4 1 1.5445 -3.8244
12 4 2 20.7900 -6.7127
12 4 3 2.3090 1.2603
12 4 4 12.6882 -15.3061
12 4 5 1.7188 7.1757
12 4 6 11.7206 -4.2460
12 4 7 -0.5872 4.6163
12 4 8 4.8174 12.0522
12 4 9 -4.2474 2.5144
12 4 10 1.5596 14.3079
12 4 11 -3.6314 -3.9645
12 4 12 15.1362 8.3165
12 4 13 -7.3963 0.3541
12 4 14 8.1865 19.8785
12 4 15 0.5923 7.7501
12 4 16 12.7287 11.8254
12 4 17 5.0529 -2.2530
12 4 18 -7.0560 7.2558
12 4 19 -3.6209 5.2995
12 4 20 -6.7308 -5.4919
12 4 21 -0.7629 -6.4480
12 5 0 -2.9678 4.5131
12 5 1 -2.6065 10.6984
12 5 2 0.0763 3.6444
12 5 3 -16.2354 12.2997
12 5 4 3.8394 4.6680
12 5 5 -6.0520 -4.9827
12 5 6 -1.5799 9.1320
12 5 7 1.7844 21.5190
12 5 8 4.1175 -0.0813
12 5 9 -3.0787 -2.9758
12 5 10 7.2368 1.3122
12 5 11 8.8800 10.7973
12 5 12 -2.7693 -4.9830
12 5 13 7.7166 16.1416
12 5 14 -1.5689 1.0282
12 5 15 -5.9878 -5.8391
12 5 16 -9.2144 -8.5783
12 5 17 2.3999 -1.2462
12 5 18 13.4688 -9.2304
12 5 19 4.9150 8.7369
12 5 20 6.2659 4.2386
12 5 21 9.8716 -7.8941
12 6 0 5.9667 -12.2164
12 6 1 -3.4373 2.8010
12 6 2 17.1880 0.4143
12 6 3 2.4367 -2.5069
12 6 4 10.3707 2.2004
12 6 5 -2.5439 3.2996
12 6 6 20.8284 -5.0181
12 6 7 -5.3590 2.9775
12 6 8 6.3624 1.3490
12 6 9 -6.6865 -1.0567
12 6 10 -5.5874 -0.7565
12 6 11 -5.8944 0.4417
12 6 12 -11.6530 3.7554
12 6 13 -5.6304 1.3404
12 6 14 -9.6970 -0.6805
12 6 15 -1.7290 -3.6015
12 6 16 -15.8749 -7.4473
12 6 17 6.4083 0.4407
12 6 18 -3.0113 5.2862
12 6 19 4.8217 3.0504
12 6 20 -4.3797 9.2766
12 7 0 -6.6728 -13.1636
12 7 1 0.0893 6.5742
12 7 2 -1.2576 -4.6519
12 7 3 0.8409 0.1863
12 7 4 -5.8894 9.2213
12 7 5 8.5288 0.0296
12 7 6 -9.7361 6.6406
12 7 7 -3.9707 6.1708
12 7 8 5.0865 -6.3119
12 7 9 -5.5507 -4.0373
12 7 10 2.2186 1.8325
12 7 11 -2.0956 -10.0963
12 7 12 -2.0126 0.6996
12 7 13 -3.9195 -6.4048
12 7 14 0.9488 -1.7543
12 7 15 -4.8965 12.4569
12 7 16 -5.3517 0.4642
12 7 17 7.2685 -6.9055
12 7 18 2.0617 -13.7038
12 7 19 11.5713 3.2734
12 7 20 11.2293 2.6796
12 8 0 -8.0237 4.6152
12 8 1 -7.7919 -0.6500
12 8 2 1.3507 -1.0302
12 8 3 0.8520 -5.5791
12 8 4 -0.3038 -15.7982
12 8 5 -3.1574 -3.3822
12 8 6 13.8519 -25.7758
12 8 7 8.2100 2.0925
12 8 8 0.8692 -12.1808
12 8 9 -6.3760 10.4100
12 8 10 -10.0063 -12.1748
12 8 11 -7.6588 -5.9126
12 8 12 -12.3621 0.1821
12 8 13 7.2988 -5.4955
12 8 14 -9.9880 2.9060
12 8 15 -1.3143 -9.8462
12 8 16 -3.7683 0.3885
12 8 17 1.3598 -8.1620
12 8 18 7.3344 -0.5644
12 8 19 2.6242 1.7816
12 8 20 0.9154 3.9555
12 9 0 3.2999 -14.0751
12 9 1 10.7530 -10.0730
12 9 2 -6.0543 -0.0823
12 9 3 -2.2665 5.3269
12 9 4 8.2511 -2.0605
12 9 5 -5.8727 3.4697
12 9 6 6.7454 5.3572
12 9 7 -2.7641 0.4854
12 9 8 1.9493 -9.3921
12 9 9 -9.2365 -15.3963
12 9 10 11.1449 -1.1738
12 9 11 -1.1861 -11.2293
12 9 12 1.4437 -0.5547
12 9 13 -1.2289 -0.3451
12 9 14 2.1755 -0.8617
12 9 15 5.0602 -2.8017
12 9 16 2.1721 0.1997
12 9 17 2.4407 0.7844
12 9 18 -5.2121 -0.3297
12 9 19 -3.0664 3.7935
12 10 0 5.3051 -6.9091
12 10 1 -2.7064 2.3401
12 10 2 -18.1382 -7.2138
12 10 3 -1.0230 0.6190
12 10 4 -17.2924 -17.5653
12 10 5 -0.8973 2.9193
12 10 6 -4.5368 -12.0746
12 10 7 0.8034 1.7122
12 10 8 -0.3123 -7.0275
12 10 9 3.5617 5.4519
12 10 10 8.4768 -14.1257
12 10 11 1.2034 -4.8570
12 10 12 18.3427 9.9613
12 10 13 9.9453 9.7679
12 10 14 4.2510 13.4099
12 10 15 1.1809 7.6895
12 10 16 -5.3699 -2.0918
12 10 17 6.1883 4.4166
12 10 18 -5.5095 -8.5194
12 10 19 -0.1790 -2.6604
12 11 0 5.7638 -6.3150
12 11 1 -1.0419 5.7647
12 11 2 20.9206 11.2605
12 11 3 -3.1243 1.9200
12 11 4 2.0406 0.1088
12 11 5 9.3033 -4.1390
12 11 6 8.3783 -0.3274
12 11 7 3.2199 8.6199
12 11 8 -9.6347 -1.0559
12 11 9 -6.9449 7.4363
12 11 10 11.3201 -4.9406
12 11 11 -5.4778 -2.6106
12 11 12 -0.0119 6.4882
12 11 13 0.1067 -9.0868
12 11 14 -12.1434 4.2566
12 11 15 -13.2844 -5.5698
12 11 16 -9.9059 -7.2340
12 11 17 5.1527 -3.8075
12 11 18 5.8406 0.9137
12 12 0 -6.6390 10.5743
12 12 1 -3.0380 -6.1890
12 12 2 19.0477 2.1633
12 12 3 -4.6799 -1.2995
12 12 4 4.0609 6.8762
12 12 5 -3.1345 1.7879
12 12 6 3.1390 1.4101
12 12 7 -5.7447 1.9491
12 12 8 15.6574 -4.1122
12 12 9 -0.7386 -2.2409
12 12 10 -3.5625 5.1773
12 12 11 10.1301 7.7440
12 12 12 -8.0709 -8.5803
12 12 13 -2.1320 -7.4300
12 12 14 -7.7488 -11.7242
12 12 15 3.5984 -10.1693
12 12 16 -2.1325 7.6433
12 12 17 -7.5693 -7.9486
12 13 0 -4.8982 23.0620
12 13 1 -4.6660 -0.5928
12 13 2 -5.8978 2.7694
12 13 3 -7.8771 -13.4046
12 13 4 7.6304 1.3828
12 13 5 9.0340 -3.3145
12 13 6 -4.6530 6.8009
12 13 7 6.8188 14.6607
12 13 8 2.3238 -2.5240
12 13 9 0.8244 -1.0092
12 13 10 0.5370 -8.7952
12 13 11 5.0068 -8.6397
12 13 12 3.8105 11.2038
12 13 13 0.8971 -4.7060
12 13 14 6.4247 3.3978
12 13 15 2.4189 -11.0146
12 13 16 11.7240 -9.9817
12 14 0 8.4466 1.7425
12 14 1 0.8654 -5.3300
12 14 2 -2.9661 -2.0593
12 14 3 -2.1948 3.3996
12 14 4 14.9515 -0.7016
12 14 5 1.3944 0.5072
12 14 6 4.8017 2.2969
12 14 7 9.5610 -8.5020
12 14 8 -0.2162 4.3156
12 14 9 13.1644 5.0442
12 14 10 6.2966 0.5361
12 14 11 4.5518 7.7017
12 14 12 -6.0981 -9.2737
12 14 13 8.1770 9.7244
12 14 14 15.2949 -4.2116
12 14 15 1.0067 -5.5332
12 14 16 -1.9839 6.1387
12 15 0 10.4674 6.4153
12 15 1 -4.9974 6.3814
12 15 2 4.0155 7.9028
12 15 3 -4.4871 -5.8881
12 15 4 -11.0763 12.3073
12 15 5 11.9341 -1.3039
12 15 6 -5.7395 -2.2349
12 15 7 -7.9412 7.5396
12 15 8 -2.3112 0.5994
12 15 9 2.5029 5.7192
12 15 10 8.7792 9.3675
12 15 11 0.3418 11.8730
12 15 12 12.5879 6.0407
12 15 13 0.6637 -6.8022
12 15 14 -5.5031 -4.6993
12 16 0 -2.4195 12.0237
12 16 1 6.2103 -0.3172
12 16 2 1.5644 0.1196
12 16 3 5.4998 -0.6952
12 16 4 2.6871 1.8524
12 16 5 -1.1927 -2.9419
12 16 6 3.8317 0.3203
12 16 7 6.1143 4.4849
12 16 8 1.0738 5.7276
12 16 9 4.4256 -0.2135
12 16 10 -8.7198 -0.1313
12 16 11 -0.6556 3.2038
12 16 12 -3.1821 4.2237
12 16 13 -2.9286 -14.1579
12 17 0 9.7398 6.5730
12 17 1 1.9854 6.5949
12 17 2 -1.8041 8.5116
12 17 3 3.7541 -5.7527
12 17 4 -8.9656 5.3249
12 17 5 -1.1745 -4.3189
12 17 6 -9.9512 -7.7706
12 17 7 -1.4912 -8.4527
12 17 8 7.3711 -0.3206
12 17 9 1.4656 -0.4108
12 17 10 -0.8593 -6.1544
12 17 11 -3.3686 -6.4794
12 17 12 3.3965 3.0165
12 18 0 4.7454 -2.1636
12 18 1 -2.9105 -2.8508
12 18 2 -2.3094 16.5460
12 18 3 5.8121 4.3535
12 18 4 -4.4719 4.7520
12 18 5 11.4232 5.9497
12 18 6 1.8209 -8.5954
12 18 7 4.6634 1.0985
12 18 8 -0.6678 -5.2489
12 18 9 -1.0534 -0.6369
12 18 10 0.5808 0.5255
12 19 0 5.6530 4.9519
12 19 1 -4.2945 -3.8035
12 19 2 -6.1538 -3.6841
12 19 3 4.6123 -5.9203
12 19 4 1.5802 -7.1542
12 19 5 3.3464 0.1805
12 19 6 0.1741 1.8132
12 19 7 4.6570 -6.2968
12 19 8 -4.8637 -0.5212
12 20 0 3.3315 -5.6450
12 20 1 1.0483 -1.4258
12 20 2 -4.6091 5.7238
12 20 3 0.6022 -4.2065
12 20 4 -4.2254 -2.8107
12 20 5 5.6524 -3.1946
13 0 0 -0.2742 -2.3493
13 0 2 -4.9053 -7.7926
13 0 4 9.8220 -7.3316
13 0 6 -0.5436 3.1208
13 0 8 -6.6331 -3.7856
13 0 10 -3.5096 -8.1294
13 0 12 -16.4590 -1.1464
13 0 14 8.1386 4.1884
13 0 16 -10.1471 3.1284
13 0 18 -18.3338 -6.1296
13 0 20 -4.2008 -3.1452
13 1 0 -6.0167 -1.3293
13 1 1 18.0454 6.4824
13 1 2 6.3497 2.1959
13 1 3 16.1816 8.4818
13 1 4 0.5123 18.5371
13 1 5 -3.8986 5.1687
13 1 6 -8.4566 12.4388
13 1 7 -6.7445 -6.9096
13 1 8 -18.7161 4.1934
13 1 9 -7.2182 -6.8252
13 1 10 -0.3634 -14.8230
13 1 11 8.7452 -0.1652
13 1 12 23.5783 2.7068
13 1 13 -13.8679 -4.9938
13 1 14 -6.5077 9.8612
13 1 15 10.9700 10.1172
13 1 16 -10.9937 -7.1197
13 1 17 -3.5169 16.0624
13 1 18 -3.4056 -6.5588
13 1 19 12.0460 6.0560
13 1 20 9.0010 3.1624
13 1 21 4.7101 -0.5255
13 2 0 3.3209 -0.1719
13 2 1 20.3640 -5.8545
13 2 2 1.1420 -2.9146
13 2 3 -6.5295 6.2989
13 2 4 1.3965 -6.9376
13 2 5 -10.3851 -0.6257
13 2 6 -8.6980 -2.5519
13 2 7 -9.1436 -7.4139
13 2 8 0.3033 -10.8435
13 2 9 0.9359 -5.7846
13 2 10 -3.0175 2.5698
13 2 11 2.2451 -10.5795
13 2 12 4.8995 5.6163
13 2 13 15.3319 -4.0037
13 2 14 -5.4545 4.1681
13 2 15 -10.4722 5.2420
13 2 16 4.3318 0.4751
13 2 17 2.6807 -10.5865
13 2 18 3.3503 -3.1259
13 2 19 -2.6489 0.0961
13 2 20 3.7193 -4.3854
13 2 21 4.5467 0.0570
13 3 0 7.7467 -6.5775
13 3 1 1.6002 -2.8273
13 3 2 22.1038 -12.5226
13 3 3 -1.9421 -3.2612
13 3 4 2.1552 1.3462
13 3 5 10.7321 6.8651
13 3 6 1.5204 -8.8876
13 3 7 4.4601 5.4361
13 3 8 4.2912 1.0050
13 3 9 8.9955 -8.0930
13 3 10 4.1111 -6.9335
13 3 11 -15.3714 2.9589
13 3 12 1.7833 1.8345
13 3 13 -7.6694 9.4388
13 3 14 0.7231 -6.3855
13 3 15 2.5089 -4.7115
13 3 16 -0.8696 0.9073
13 3 17 6.2191 7.5545
13 3 18 -5.2915 -5.9568
13 3 19 -13.3911 -8.6921
13 3 20 -2.2986 -7.9099
13 4 0 -2.2988 3.2457
13 4 1 6.7998 1.5395
13 4 2 1.4940 0.6493
13 4 3 5.1021 -3.4820
13 4 4 3.2708 5.1369
13 4 5 -4.7505 -13.9654
13 4 6 -0.4267 -2.5298
13 4 7 -3.5653 -8.4022
13 4 8 -0.7680 1.2035
13 4 9 2.6743 -2.5610
13 4 10 1.9926 3.6800
13 4 11 -5.2080 -2.4148
13 4 12 -1.5068 -2.8846
13 4 13 -2.9821 3.5035
13 4 14 5.8513 -0.5657
13 4 15 -6.8835 -10.7135
13 4 16 -5.7534 -3.3473
13 4 17 10.1978 -0.1476
13 4 18 1.8976 -2.7848
13 4 19 4.6876 5.8007
13 4 20 -5.5816 -7.4673
13 5 0 4.9875 -13.1936
13 5 1 5.1521 8.1041
13 5 2 10.2618 7.9792
13 5 3 -6.3656 0.1215
13 5 4 -9.1068 -2.6865
13 5 5 2.7326 7.0557
13 5 6 -4.3835 -9.5308
13 5 7 -7.4728 -1.0296
13 5 8 -4.8865 -16.9483
13 5 9 -1.9748 10.3082
13 5 10 0.8281 -2.6434
13 5 11 -0.8593 0.0480
13 5 12 -15.6259 -1.0706
13 5 13 -5.8511 2.7242
13 5 14 -6.0971 -4.6103
13 5 15 -9.2170 0.9945
13 5 16 -2.0179 1.1446
13 5 17 1.2867 9.2010
13 5 18 2.4765 3.7285
13 5 19 -5.4625 9.5794
13 5 20 -4.1123 6.0997
13 6 0 -4.1502 3.2018
13 6 1 2.8421 1.4391
13 6 2 -7.1587 -4.3963
13 6 3 12.8855 8.6953
13 6 4 -2.9301 -1.2716
13 6 5 3.0223 7.1331
13 6 6 0.9583 2.0407
13 6 7 15.0676 -2.4778
13 6 8 2.7167 6.8579
13 6 9 2.2326 14.2524
13 6 10 -4.7409 -2.3550
13 6 11 5.9486 14.9176
13 6 12 1.3289 -2.3703
13 6 13 -4.7126 16.0960
13 6 14 -5.9433 2.8252
13 6 15 2.8237 8.9444
13 6 16 -4.6126 6.3407
13 6 17 -3.3094 -0.3634
13 6 18 -5.6683 9.2830
13 6 19 -0.2266 8.7007
13 6 20 4.2553 6.3819
13 7 0 -8.4281 8.6671
13 7 1 5.8212 -12.2637
13 7 2 -5.2171 11.9981
13 7 3 -0.8071 10.6410
13 7 4 -9.1997 10.7405
13 7 5 2.3004 -14.4144
13 7 6 -13.7874 -6.7137
13 7 7 5.8707 9.2355
13 7 8 4.9465 6.2040
13 7 9 -12.9787 -9.0219
13 7 10 -14.3937 16.8675
13 7 11 -1.8210 -1.9629
13 7 12 -14.6170 0.5307
13 7 13 -7.4967 -10.2785
13 7 14 5.9411 -19.5800
13 7 15 11.6057 6.2716
13 7 16 13.1213 -5.9212
13 7 17 -4.3752 7.6616
13 7 18 -1.6494 -3.2519
13 7 19 -7.7671 -4.1661
13 8 0 -5.9845 0.9399
13 8 1 -7.5940 -7.6625
13 8 2 -2.0065 -0.9196
13 8 3 -3.7843 2.5856
13 8 4 -0.7305 -1.1659
13 8 5 11.1725 6.8935
13 8 6 6.4327 -1.7895
13 8 7 7.8613 13.5756
13 8 8 -4.8651 5.1260
13 8 9 8.5375 9.5210
13 8 10 6.3912 0.5127
13 8 11 -5.9533 9.5924
13 8 12 6.4242 4.2183
13 8 13 0.7650 9.2956
13 8 14 -1.8841 -6.0581
13 8 15 -4.5052 4.2820
13 8 16 0.7507 -2.8741
13 8 17 -6.3546 0.1765
13 8 18 -5.4935 -4.5100
13 8 19 0.4181 -4.8960
13 9 0 2.3543 -6.9992
13 9 1 1.6471 -6.9931
13 9 2 -6.1188 0.1434
13 9 3 -0.3473 -0.3004
13 9 4 0.5005 -8.8709
13 9 5 12.6096 2.1371
13 9 6 8.7658 -3.1087
13 9 7 3.5829 17.3337
13 9 8 -11.0415 7.4964
13 9 9 3.5680 -2.5413
13 9 10 -16.1349 -11.7019
13 9 11 -3.0472 9.6771
13 9 12 -17.0910 -19.2484
13 9 13 -17.8066 5.5240
13 9 14 -11.9126 -13.8108
13 9 15 -13.7390 -9.4152
13 9 16 0.2794 -14.4301
13 9 17 -11.5954 4.1738
13 9 18 14.5065 2.7435
13 10 0 0.8988 8.3371
13 10 1 7.2520 5.6459
13 10 2 3.6921 9.0986
13 10 3 -9.2408 -8.0671
13 10 4 4.0531 3.8222
13 10 5 -4.7342 -4.9309
13 10 6 4.2021 9.0671
13 10 7 -1.9604 -14.6713
13 10 8 -0.2406 -7.1091
13 10 9 4.5460 -4.6424
13 10 10 3.2737 -0.3371
13 10 11 -1.2534 -3.0577
13 10 12 -3.9348 -5.7145
13 10 13 -1.9139 -11.7893
13 10 14 -2.3515 -8.9756
13 10 15 7.4328 -3.9618
13 10 16 2.3871 -6.1425
13 10 17 11.5040 5.9370
13 10 18 7.8789 2.0484
13 11 0 -11.9690 3.1137
13 11 1 1.5784 -7.0940
13 11 2 -5.3801 -14.5984
13 11 3 -3.9040 -21.8969
13 11 4 11.8718 -2.3798
13 11 5 10.6241 -0.2522
13 11 6 5.0024 23.9052
13 11 7 1.5717 1.9622
13 11 8 -4.5799 5.0970
13 11 9 0.9835 9.4888
13 11 10 1.0730 0.8228
13 11 11 -0.0522 -6.9513
13 11 12 4.1962 -10.3792
13 11 13 7.2299 -1.6783
13 11 14 3.6573 -12.3899
13 11 15 -0.1152 -10.2779
13 11 16 14.8514 -5.1800
13 11 17 3.0292 -3.2033
13 12 0 -2.8352 0.0422
13 12 1 -3.7825 0.5424
13 12 2 0.8428 4.2636
13 12 3 -9.7638 -3.4714
13 12 4 1.6470 -0.9920
13 12 5 -8.3789 -7.0539
13 12 6 -1.9357 -1.6209
13 12 7 5.7379 -4.0311
13 12 8 -7.4737 1.8409
13 12 9 5.0045 3.0280
13 12 10 -6.1413 -2.4488
13 12 11 5.3990 -1.1620
13 12 12 -9.5014 -5.5229
13 12 13 7.6348 -5.5871
13 12 14 -2.4028 -8.2989
13 12 15 11.4626 2.0396
13 12 16 7.1382 5.3056
13 13 0 0.1458 -1.9008
13 13 1 0.3089 -5.0974
13 13 2 -7.9412 9.0045
13 13 3 17.7870 -1.4192
13 13 4 6.6491 -3.0957
13 13 5 4.7655 -1.1000
13 13 6 -4.7737 4.5324
13 13 7 7.1498 5.2426
13 13 8 5.0120 -2.7212
13 13 9 -5.5632 -0.3949
13 13 10 2.5508 -4.0787
13 13 11 1.8336 -9.9350
13 13 12 -5.8489 -1.9089
13 13 13 -3.0408 -5.7045
13 13 14 -7.7364 -10.1297
13 13 15 -0.3724 -1.7185
13 13 16 -0.8720 -6.5153
13 14 0 -3.4119 5.1805
13 14 1 7.4056 10.9371
13 14 2 -6.6677 6.3865
13 14 3 -8.0970 2.1551
13 14 4 -2.9827 -0.2885
13 14 5 -4.1048 -2.9222
13 14 6 2.7184 -0.3986
13 14 7 4.4923 -3.6866
13 14 8 -3.2317 -4.4163
13 14 9 9.3734 1.2315
13 14 10 -2.4535 -0.4454
13 14 11 1.1626 -1.1686
13 14 12 -1.2042 4.1588
13 14 13 0.7307 1.7739
13 14 14 6.3150 13.1401
13 14 15 6.9269 -1.3200
13 15 0 -1.6885 12.0850
13 15 1 4.5330 -0.9157
13 15 2 -3.3238 -0.1550
13 15 3 7.6816 -3.5744
13 15 4 5.7332 2.6992
13 15 5 4.9010 4.9097
13 15 6 2.8717 2.4851
13 15 7 -4.5281 3.0417
13 15 8 2.6800 -1.5075
13 15 9 -8.9755 -2.4054
13 15 10 1.0345 2.3015
13 15 11 -8.7431 -8.6547
13 15 12 10.7076 5.4709
13 15 13 9.6365 3.4333
13 16 0 0.7840 4.6827
13 16 1 0.0633 -1.5533
13 16 2 1.2763 0.7065
13 16 3 -3.8900 2.9864
13 16 4 -2.0386 5.8682
13 16 5 9.3921 -14.8607
13 16 6 -0.6939 3.0492
13 16 7 6.8551 9.3411
13 16 8 -0.1114 -4.0769
13 16 9 -2.0243 5.0583
13 16 10 11.3000 -6.2628
13 16 11 8.1788 9.7682
13 16 12 9.2947 8.7215
13 17 0 -6.3326 -3.1118
13 17 1 -3.4168 -6.7062
13 17 2 1.3718 -9.4039
13 17 3 -2.0319 -3.9820
13 17 4 -1.4195 5.3001
13 17 5 -3.9182 6.5115
13 17 6 -6.7104 -3.9174
13 17 7 -11.0568 -3.5961
13 17 8 5.1457 -1.6273
13 17 9 -4.8544 -6.7420
13 17 10 -3.3368 2.4398
13 17 11 -0.6239 -5.8647
13 18 0 -2.5803 6.4985
13 18 1 -1.7863 3.7149
13 18 2 -2.8923 5.2269
13 18 3 -3.9245 -2.8697
13 18 4 4.8290 -0.6025
13 18 5 7.7552 -6.1651
13 18 6 -3.3519 7.2966
13 18 7 -4.5450 -0.1415
13 18 8 -5.1388 -4.1038
13 18 9 5.5905 3.3237
13 19 0 9.9594 -9.9650
13 19 1 2.1367 1.5474
13 19 2 14.9112 6.8531
13 19 3 1.4242 6.2732
13 19 4 1.8680 9.1840
13 19 5 -0.7307 4.0230
13 19 6 5.4404 -9.8458
13 20 0 0.0062 -2.3998
14 0 0 6.3774 1.3348
14 0 2 3.0276 -24.1712
14 0 4 -18.6267 -6.2394
14 0 6 16.2776 -3.8499
14 0 8 10.9139 0.6628
14 0 10 7.8059 17.7043
14 0 12 -2.3252 -24.2383
14 0 14 16.4989 9.8799
14 0 16 -7.7960 3.9486
14 0 18 11.2855 -2.6176
14 0 20 17.7274 5.1308
14 1 0 9.0233 -5.5253
14 1 1 -16.4448 -3.7031
14 1 2 7.7325 -20.2031
14 1 3 -1.8615 -1.3312
14 1 4 9.6499 -7.4808
14 1 5 -1.5193 11.0370
14 1 6 9.3259 -0.2796
14 1 7 -9.5395 -6.4797
14 1 8 8.1966 9.7998
14 1 9 -6.6104 -9.6862
14 1 10 -5.3380 8.8962
14 1 11 -0.9892 2.4365
14 1 12 -1.3246 9.6190
14 1 13 0.2777 -3.1709
14 1 14 -4.0000 5.2425
14 1 15 9.7715 5.7022
14 1 16 7.6784 5.3122
14 1 17 5.3890 7.6218
14 1 18 -9.8878 6.6596
14 1 19 0.3242 3.3477
14 1 20 -2.9510 -7.4177
14 2 0 -6.9883 -11.2385
14 2 1 -2.1463 -3.2595
14 2 2 -5.3852 -5.6780
14 2 3 5.4564 -0.8800
14 2 4 8.4193 -4.7244
14 2 5 2.5594 -4.9186
14 2 6 -15.0916 2.2537
14 2 7 12.5702 5.7071
14 2 8 21.1084 -2.3768
14 2 9 -0.8374 9.3454
14 2 10 -2.7583 11.5272
14 2 11 -3.6254 -4.6026
14 2 12 8.7137 0.6257
14 2 13 0.5271 3.1830
14 2 14 13.6513 9.2066
14 2 15 -6.2498 3.7133
14 2 16 7.8350 1.9046
14 2 17 -5.1050 -4.0446
14 2 18 7.7509 9.0864
14 2 19 -6.3142 7.8695
14 2 20 -10.1948 4.8555
14 3 0 -2.2136 -4.1169
14 3 1 7.9469 -0.6912
14 3 2 2.5630 13.6697
14 3 3 2.7964 6.5926
14 3 4 -2.2974 1.6180
14 3 5 -13.3308 6.2697
14 3 6 3.3225 2.8274
14 3 7 -2.8357 9.9743
14 3 8 0.2933 5.5199
14 3 9 -8.2361 6.8331
14 3 10 -8.9172 0.9869
14 3 11 10.5632 -0.8423
14 3 12 2.0765 -1.9190
14 3 13 12.7585 5.3303
14 3 14 4.9215 4.0697
14 3 15 12.1126 16.1872
14 3 16 -4.3327 -0.9427
14 3 17 3.9255 3.7644
14 3 18 -8.5026 7.7262
14 3 19 7.0735 -12.5055
14 3 20 -1.6480 0.5114
14 4 0 3.7907 3.7752
14 4 1 -0.7339 -0.2426
14 4 2 7.9201 -9.9263
14 4 3 3.6320 1.8459
14 4 4 2.9374 3.2886
14 4 5 2.8705 3.4592
14 4 6 -5.5866 -12.7593
14 4 7 6.2006 1.4327
14 4 8 -4.0339 -8.6718
14 4 9 3.2932 -4.1918
14 4 10 0.7684 4.7875
14 4 11 10.8937 5.2754
14 4 12 5.8185 -3.0214
14 4 13 1.5530 -5.7600
14 4 14 7.3747 -7.6926
14 4 15 -0.8082 12.0541
14 4 16 1.4865 13.9648
14 4 17 5.6570 -1.0298
14 4 18 7.2018 7.0161
14 4 19 9.9353 -9.4214
14 5 0 -6.6864 7.1790
14 5 1 8.2743 13.7714
14 5 2 3.2881 -4.5158
14 5 3 0.7097 1.0268
14 5 4 -5.6917 4.9104
14 5 5 12.4377 -3.0300
14 5 6 3.6632 -5.8386
14 5 7 4.0271 -0.0440
14 5 8 -4.5039 5.6461
14 5 9 8.8585 5.3415
14 5 10 -7.0816 -1.0759
14 5 11 -1.4679 -1.9022
14 5 12 -5.7326 -10.7402
14 5 13 12.6412 7.6682
14 5 14 -5.3036 -5.9739
14 5 15 2.9299 13.9558
14 5 16 -2.3253 1.3773
14 5 17 -18.7248 -1.3448
14 5 18 -4.9945 1.0838
14 5 19 -3.3947 -9.1968
14 6 0 -1.5746 -15.5318
14 6 1 -4.1878 6.1028
14 6 2 1.9949 4.7668
14 6 3 1.0549 11.5188
14 6 4 1.1899 3.3716
14 6 5 -4.0483 0.3165
14 6 6 -8.8681 -4.6953
14 6 7 3.6235 -5.6865
14 6 8 6.4456 -12.4447
14 6 9 11.8558 -11.9890
14 6 10 19.2061 -1.9498
14 6 11 4.1371 -4.2561
14 6 12 6.5763 -4.8768
14 6 13 -1.9994 -2.1577
14 6 14 19.3654 -3.9289
14 6 15 3.1612 -7.7437
14 6 16 6.1494 -3.7509
14 6 17 0.5056 -3.4801
14 6 18 -3.9583 -6.6780
14 6 19 8.4179 2.9344
14 7 0 -2.0431 -2.1162
14 7 1 -7.1727 5.8465
14 7 2 8.5868 3.2133
14 7 3 -0.8119 -3.2120
14 7 4 -3.0523 -4.9555
14 7 5 -2.9002 -1.4314
14 7 6 -5.8116 -7.6531
14 7 7 2.7571 -3.1648
14 7 8 -7.2751 -7.3341
14 7 9 -2.9746 -2.1223
14 7 10 2.4763 -12.4460
14 7 11 1.7147 -11.6315
14 7 12 -0.8164 -5.4400
14 7 13 15.1954 2.8419
14 7 14 6.1781 3.8979
14 7 15 -0.6427 5.7880
14 7 16 -6.3679 7.2885
14 7 17 8.5217 -4.4933
14 7 18 11.6245 0.5000
14 8 0 1.2958 -1.3908
14 8 1 -1.6096 -2.7609
14 8 2 -7.0965 -5.1574
14 8 3 -7.7329 -4.6443
14 8 4 6.1392 -0.6661
14 8 5 1.4233 -4.8475
14 8 6 -1.0387 16.9981
14 8 7 -4.8049 -2.3651
14 8 8 0.9736 -4.6717
14 8 9 6.7415 2.6274
14 8 10 9.1560 -2.8047
14 8 11 -0.9348 -7.2018
14 8 12 7.7522 3.1737
14 8 13 3.8150 -7.5909
14 8 14 -8.8151 10.3653
14 8 15 5.6959 -5.5539
14 8 16 -5.9042 1.5107
14 8 17 5.3747 -9.4261
14 8 18 -12.7813 6.9778
14 9 0 -2.0764 8.5089
14 9 1 3.8173 3.9426
14 9 2 -8.1827 -11.5450
14 9 3 0.2467 7.5754
14 9 4 12.4542 4.6008
14 9 5 3.8101 3.4522
14 9 6 -2.3020 3.4302
14 9 7 -2.7057 -10.0048
14 9 8 5.8084 -2.0862
14 9 9 5.7926 -13.8428
14 9 10 -14.9933 -2.2208
14 9 11 -1.4827 5.3791
14 9 12 10.0595 -4.6193
14 9 13 -15.4575 7.8353
14 9 14 -8.0454 5.8829
14 9 15 -11.6820 -6.7457
14 9 16 -3.2572 8.9688
14 9 17 -3.6266 -3.6660
14 10 0 5.9823 12.6253
14 10 1 -3.6655 -2.1822
14 10 2 -0.9122 -8.8029
14 10 3 -4.0108 -7.3721
14 10 4 1.5274 -8.9475
14 10 5 1.7845 -0.0845
14 10 6 -4.3195 -15.8441
14 10 7 11.9616 -4.6396
14 10 8 -4.1447 -0.2993
14 10 9 1.5177 2.1045
14 10 10 3.2596 -4.6414
14 10 11 2.1619 -0.9313
14 10 12 -7.2462 14.8525
14 10 13 4.5778 0.0675
14 10 14 -8.0062 5.4015
14 10 15 -0.2177 -7.2375
14 10 16 -1.9563 0.7658
14 10 17 -6.4492 -9.3255
14 11 0 22.6636 -2.3421
14 11 1 18.9829 -6.7105
14 11 2 -10.0450 19.1065
14 11 3 11.3143 1.9487
14 11 4 -6.9775 -0.5283
14 11 5 -12.0471 4.4604
14 11 6 2.0520 -1.9997
14 11 7 5.2936 -11.4732
14 11 8 -2.0288 -2.0543
14 11 9 3.8011 -0.5777
14 11 10 3.4736 -11.5354
14 11 11 -0.6547 3.4223
14 11 12 7.7892 -7.8437
14 11 13 -8.9678 0.9312
14 11 14 1.5441 5.2081
14 11 15 -0.6964 -6.1090
14 11 16 -6.6062 -9.5648
14 12 0 6.9278 -16.9250
14 12 1 -6.9735 4.3031
14 12 2 16.0612 10.0207
14 12 3 0.3661 -3.7572
14 12 4 -0.1323 3.2669
14 12 5 2.8662 -3.1978
14 12 6 4.2594 -6.1089
14 12 7 -3.0829 -7.9901
14 12 8 4.7013 0.7428
14 12 9 8.6893 -2.7225
14 12 10 -12.0749 -0.3503
14 12 11 5.9002 4.9742
14 12 12 1.3026 -5.4659
14 12 13 9.9342 -3.3987
14 12 14 -1.9442 -8.3224
14 12 15 -2.3156 -4.9637
14 13 0 -3.5799 10.4087
14 13 1 6.6344 -5.8029
14 13 2 8.4942 -2.7172
14 13 3 -0.7088 -2.9675
14 13 4 -2.2680 -0.6543
14 13 5 2.2945 -8.6348
14 13 6 -3.6579 -12.8467
14 13 7 -2.1405 -6.2649
14 13 8 3.5961 -4.3613
14 13 9 11.0624 3.6876
14 13 10 8.9967 5.1063
14 13 11 10.1427 8.0117
14 13 12 5.3097 4.2536
14 13 13 -2.4051 6.4733
14 13 14 -0.1275 15.8044
14 14 0 9.8263 -1.6338
14 14 1 -4.7467 -1.8415
14 14 2 7.3771 -6.2328
14 14 3 1.8893 -8.4305
14 14 4 2.0409 -16.4113
14 14 5 7.8885 2.5095
14 14 6 5.2591 3.4537
14 14 7 5.6026 -1.4112
14 14 8 -6.0321 1.7822
14 14 9 0.9212 -1.5455
14 14 10 3.1317 5.7868
14 14 11 -9.3211 5.4575
14 14 12 -12.0223 6.4529
14 14 13 -20.1257 -5.6371
14 15 0 3.8101 2.0013
14 15 1 -3.3271 -3.3918
14 15 2 -9.4611 7.8800
14 15 3 1.1860 3.5737
14 15 4 5.1628 -6.9306
14 15 5 -6.7829 -1.1319
14 15 6 4.0649 11.1013
14 15 7 -1.2034 0.3457
14 15 8 -1.2129 1.9866
14 15 9 -6.0794 5.0785
14 15 10 -11.0077 5.4847
14 15 11 0.7085 6.1120
14 15 12 -6.2226 9.3882
14 16 0 -6.2909 1.9166
14 16 1 -2.1321 3.2568
14 16 2 0.0303 1.9416
14 16 3 4.7008 -3.1408
14 16 4 5.3178 -4.2656
14 16 5 1.0512 1.6385
14 16 6 5.6745 8.9883
14 16 7 -7.0587 -3.6489
14 16 8 -2.9576 -7.3080
14 16 9 1.0250 -1.6019
14 16 10 4.4400 -4.1286
14 16 11 -5.8494 -6.7363
14 17 0 -2.1494 -0.0214
14 17 1 5.1753 -7.1673
14 17 2 0.2314 -1.8705
14 17 3 6.6998 5.2984
14 17 4 -0.3677 -4.8952
14 17 5 5.1771 -6.4196
14 17 6 3.1666 -3.3436
14 17 7 5.6256 4.7124
14 17 8 -6.5298 10.2341
14 17 9 -1.0028 1.5410
14 18 0 -2.9512 6.4057
14 18 1 -0.3398 -2.1212
14 18 2 -8.1629 -0.5420
14 18 3 1.0364 4.7568
14 18 4 8.8405 0.7116
14 18 5 -9.6649 8.8113
14 18 6 -0.1850 -5.5010
14 18 7 -4.1080 -8.4841
14 19 0 4.0159 -4.8267
14 19 1 7.7124 -1.5431
14 19 2 -1.9607 -5.6027
14 19 3 3.4738 -4.7852
15 0 0 6.2223 4.6224
15 0 2 2.3884 3.3168
15 0 4 -4.5725 7.0918
15 0 6 1.4624 -1.3367
15 0 8 2.2700 4.4102
15 0 10 14.1125 -4.3372
15 0 12 2.6888 5.3524
15 0 14 5.7599 1.4347
15 0 16 3.5507 0.7280
15 0 18 7.1644 -9.4753
15 1 0 -8.9047 5.1241
15 1 1 6.2511 9.6491
15 1 2 1.2269 -9.2767
15 1 3 -0.6578 0.4118
15 1 4 7.8826 8.0323
15 1 5 11.3179 -7.1439
15 1 6 0.7076 11.1721
15 1 7 5.8375 -2.0281
15 1 8 7.5280 13.0777
15 1 9 12.8847 -3.6649
15 1 10 2.7311 8.2541
15 1 11 -2.9247 3.3051
15 1 12 -0.8065 7.3509
15 1 13 -3.9040 -12.3535
15 1 14 10.5351 -7.5133
15 1 15 -8.0502 9.3727
15 1 16 11.2624 1.0623
15 1 17 -6.1092 0.9034
15 1 18 -14.7267 -0.0289
15 1 19 -2.2088 11.9390
15 2 0 1.2886 3.8512
15 2 1 5.8945 10.9039
15 2 2 -1.4169 4.8318
15 2 3 1.5167 -18.6301
15 2 4 -0.6475 0.8547
15 2 5 -7.8854 3.7599
15 2 6 2.9360 -0.1624
15 2 7 -8.0571 6.4580
15 2 8 -3.3617 1.3018
15 2 9 -3.3098 -6.9208
15 2 10 0.6677 -5.5383
15 2 11 21.6748 -5.4298
15 2 12 -6.1454 -3.2169
15 2 13 6.4469 7.0649
15 2 14 7.8598 0.6172
15 2 15 0.3053 -4.4196
15 2 16 -2.3833 8.3154
15 2 17 2.0065 -1.3832
15 2 18 -6.8956 1.5945
15 2 19 -8.4563 -1.2899
15 3 0 1.9036 -8.3804
15 3 1 9.8865 -5.2834
15 3 2 2.2228 -9.2896
15 3 3 12.6624 6.7339
15 3 4 -3.1419 -1.6102
15 3 5 -16.3089 9.0496
15 3 6 -3.0981 9.7467
15 3 7 -0.7293 1.5322
15 3 8 -8.9703 -6.5857
15 3 9 9.2468 1.5236
15 3 10 3.1837 -0.6315
15 3 11 -2.1962 -7.1127
15 3 12 2.4496 -7.4511
15 3 13 3.1570 0.7708
15 3 14 1.4684 1.0298
15 3 15 -2.7738 6.1157
15 3 16 -0.9179 4.2393
15 3 17 2.3849 -3.4463
15 3 18 5.4955 1.0062
15 3 19 14.1763 0.0516
15 4 0 0.1969 -2.6773
15 4 1 4.7753 -2.5414
15 4 2 -1.5588 2.5543
15 4 3 3.7497 9.5162
15 4 4 -2.4441 -2.7197
15 4 5 2.8984 -6.6893
15 4 6 -4.3143 2.0259
15 4 7 -16.4929 -7.0806
15 4 8 -6.5630 -0.6221
15 4 9 -2.5898 -22.7745
15 4 10 -5.5645 3.8708
15 4 11 -1.4081 -1.7839
15 4 12 7.5883 -5.7796
15 4 13 -9.4276 -5.5562
15 4 14 15.8843 5.5806
15 4 15 -0.5920 -5.3246
15 4 16 -2.1472 6.5980
15 4 17 -0.6294 4.1172
15 4 18 -2.5032 -6.3022
15 5 0 1.3737 0.3236
15 5 1 -6.2492 3.2646
15 5 2 4.4705 9.7031
15 5 3 7.1826 4.1095
15 5 4 12.3676 -3.8629
15 5 5 -3.3855 10.8810
15 5 6 -8.0656 10.6321
15 5 7 2.0456 -14.2785
15 5 8 1.6637 -3.5269
15 5 9 -3.3600 -0.2044
15 5 10 -3.9879 12.1809
15 5 11 -0.3518 4.5036
15 5 12 3.6743 2.3886
15 5 13 -9.9602 10.7954
15 5 14 -11.4326 0.8501
15 5 15 0.0547 -0.5123
15 5 16 -7.7486 -8.3497
15 5 17 2.0142 -12.3220
15 5 18 4.5161 7.5457
15 6 0 3.7399 2.2953
15 6 1 -5.7350 7.5470
15 6 2 -1.5260 -1.9687
15 6 3 -2.0366 2.1640
15 6 4 5.9965 -5.3714
15 6 5 -5.2824 0.7640
15 6 6 4.1425 -0.2496
15 6 7 -1.0772 -2.4328
15 6 8 14.0711 0.6344
15 6 9 -13.3036 -18.0590
15 6 10 -3.0348 -2.6059
15 6 11 -4.4751 -6.7044
15 6 12 18.0293 -2.4714
15 6 13 -4.3062 -8.7028
15 6 14 -7.0357 0.8436
15 6 15 4.8489 -4.7271
15 6 16 -4.6031 -0.6130
15 6 17 5.8509 2.2861
15 6 18 -9.4509 2.8447
15 7 0 5.7755 -6.1224
15 7 1 2.3388 -8.9440
15 7 2 6.5735 -2.0027
15 7 3 0.6429 -1.7554
15 7 4 -2.5044 10.7848
15 7 5 16.4069 -1.3643
15 7 6 -4.7232 -11.8036
15 7 7 5.8216 6.0463
15 7 8 -7.3323 6.6195
15 7 9 4.5596 -3.9942
15 7 10 4.8319 0.4037
15 7 11 4.9298 6.0711
15 7 12 -5.7734 18.2178
15 7 13 1.3434 3.0387
15 7 14 -8.6596 10.8036
15 7 15 -9.0437 0.7429
15 7 16 7.2181 -0.4259
15 7 17 -0.3352 -4.1974
15 8 0 3.0749 -3.4543
15 8 1 1.3904 -23.3084
15 8 2 -2.4026 1.8205
15 8 3 -3.0150 -3.1353
15 8 4 3.4827 -1.3607
15 8 5 -5.5932 2.6331
15 8 6 0.2685 2.5497
15 8 7 -15.0731 -0.2383
15 8 8 -2.2897 2.2691
15 8 9 -5.2698 -7.6883
15 8 10 1.5190 6.5361
15 8 11 11.1418 -5.6779
15 8 12 -1.2375 5.1654
15 8 13 11.3474 7.9133
15 8 14 -4.7521 5.0811
15 8 15 -0.4632 -4.9908
15 8 16 -11.0202 1.6986
15 8 17 3.1452 -7.5138
15 9 0 6.6327 1.9240
15 9 1 6.5916 9.2393
15 9 2 -3.7445 7.6423
15 9 3 -4.0962 -9.3628
15 9 4 5.2919 -0.8441
15 9 5 -1.1513 -8.7890
15 9 6 4.7763 8.1081
15 9 7 8.4878 0.1778
15 9 8 -14.1218 -11.9132
15 9 9 -1.9637 10.4139
15 9 10 22.1736 -11.7264
15 9 11 -11.9709 -3.5720
15 9 12 15.0026 6.0011
15 9 13 -18.9359 -2.8223
15 9 14 -2.1020 -2.2513
15 9 15 -6.8340 -8.2237
15 9 16 -4.6297 -5.5721
15 10 0 0.8320 -5.3976
15 10 1 -1.3453 13.9613
15 10 2 1.9440 -0.2824
15 10 3 -1.7618 5.2130
15 10 4 -0.0406 -4.8429
15 10 5 -10.4038 -10.9198
15 10 6 -3.3057 -3.7700
15 10 7 6.8777 -2.9796
15 10 8 6.9791 6.5816
15 10 9 -9.1047 -5.6956
15 10 10 -1.4850 14.7216
15 10 11 0.2884 -8.8390
15 10 12 -5.6831 -2.6873
15 10 13 0.4944 3.4929
15 10 14 -1.6724 -2.4440
15 10 15 -3.1604 8.9849
15 10 16 9.8073 -5.2364
15 11 0 -10.9229 7.3094
15 11 1 -4.6798 -0.8761
15 11 2 -6.1361 1.7070
15 11 3 -4.9670 3.2687
15 11 4 -5.6005 1.6675
15 11 5 2.1537 -11.5314
15 11 6 -9.3576 14.4746
15 11 7 6.0501 1.4316
15 11 8 -8.1475 -0.8497
15 11 9 -7.7930 -3.7364
15 11 10 -7.4310 -11.7132
15 11 11 -8.9622 -2.8309
15 11 12 0.1294 7.1874
15 11 13 0.8798 -1.2147
15 11 14 -13.5168 3.0104
15 11 15 1.7837 -11.7659
15 12 0 7.2697 -3.2503
15 12 1 9.9795 -0.2581
15 12 2 -3.5177 0.6821
15 12 3 -5.3989 6.1715
15 12 4 -0.5664 -2.6404
15 12 5 -0.4952 -0.6135
15 12 6 11.2895 -0.0244
15 12 7 -4.1728 -4.7550
15 12 8 11.0338 -2.2498
15 12 9 -0.0010 -12.8496
15 12 10 8.3290 12.3610
15 12 11 7.0956 -6.9457
15 12 12 -2.6933 2.1650
15 12 13 7.2474 -0.8589
15 12 14 12.0969 -11.6080
15 13 0 -4.1947 6.8960
15 13 1 1.4124 -14.3561
15 13 2 -3.8333 -3.5427
15 13 3 -2.8628 0.9895
15 13 4 9.0286 -9.3098
15 13 5 0.7826 9.7710
15 13 6 1.9210 1.0351
15 13 7 -12.9587 5.2568
15 13 8 -2.0001 4.3405
15 13 9 -3.7436 -3.3184
15 13 10 8.7420 2.4449
15 13 11 17.3371 -0.2922
15 13 12 -1.9578 -2.4532
15 13 13 5.9559 -12.6274
15 14 0 -3.7617 0.2792
15 14 1 -12.8591 -1.0115
15 14 2 -5.6034 -6.5251
15 14 3 -1.7120 1.1091
15 14 4 5.3430 -7.1620
15 14 5 2.6816 3.2604
15 14 6 6.7061 2.8761
15 14 7 -12.9186 -7.0069
15 14 8 0.5114 3.3552
15 14 9 0.8059 -14.2319
15 14 10 -4.2911 0.5066
15 14 11 4.9121 -2.1876
15 14 12 -7.1996 0.2872
15 15 0 -0.4759 4.7626
15 15 1 -6.8653 3.8217
15 15 2 -5.7543 -4.3798
15 15 3 1.3501 3.3688
15 15 4 -4.4567 -10.4870
15 15 5 -5.0343 -1.2288
15 15 6 3.2781 -2.5267
15 15 7 -0.5898 1.9956
15 15 8 1.5444 -5.1688
15 15 9 1.1887 -12.8428
15 15 10 -1.5666 -1.3835
15 15 11 5.6863 -3.1070
15 16 0 2.6652 -4.1415
15 16 1 9.8133 -0.7414
15 16 2 7.8354 -0.7604
15 16 3 10.2154 0.4607
15 16 4 -1.7492 1.1392
15 16 5 -7.7011 -2.4576
15 16 6 3.6923 -0.5575
15 16 7 -5.5860 1.4160
15 16 8 3.9441 8.7391
15 16 9 -3.7738 0.7133
15 17 0 -10.0988 -3.4622
15 17 1 -1.4293 -8.0073
15 17 2 -5.3588 -7.7225
15 17 3 1.6074 3.1468
15 17 4 7.5018 -0.4265
15 17 5 -8.2895 3.6889
15 17 6 -3.1826 -3.3241
15 17 7 -5.2968 -1.1667
15 18 0 -2.0336 -2.1972
15 18 1 -5.8183 0.9228
15 18 2 0.4574 3.4173
15 18 3 1.6834 0.4752
15 18 4 2.2759 7.6894
16 0 0 2.3985 2.6850
16 0 2 0.1956 -4.5506
16 0 4 1.9714 7.6881
16 0 6 5.4325 15.5335
16 0 8 1.8402 0.2684
16 0 10 12.2135 -4.0409
16 0 12 0.5876 -2.4889
16 0 14 -18.4590 -6.8161
16 0 16 2.2106 -14.9298
16 0 18 0.1303 0.4328
16 1 0 -4.1807 1.3768
16 1 1 -2.4746 -15.9562
16 1 2 -5.4116 0.6429
16 1 3 -0.7336 1.0339
16 1 4 2.1751 8.7081
16 1 5 -12.2402 8.4575
16 1 6 -5.3453 7.6162
16 1 7 -3.5598 11.0245
16 1 8 -4.1888 -5.4918
16 1 9 2.7934 17.8590
16 1 10 -6.3644 -1.3717
16 1 11 -16.2762 4.4205
16 1 12 -4.8290 -2.6315
16 1 13 -3.0209 5.4188
16 1 14 2.1338 4.0984
16 1 15 -1.6932 7.4493
16 1 16 -0.2972 -3.5643
16 1 17 1.7197 -10.4379
16 1 18 8.4890 -5.5982
16 2 0 0.5113 -0.0502
16 2 1 12.1553 2.0303
16 2 2 -0.3498 -7.0403
16 2 3 -3.6968 -2.4995
16 2 4 0.1156 5.5386
16 2 5 9.2456 -1.3759
16 2 6 -8.2120 1.0419
16 2 7 9.5643 3.0148
16 2 8 7.4232 5.8900
16 2 9 9.9484 13.3497
16 2 10 -0.6493 3.0014
16 2 11 3.1644 -7.5326
16 2 12 -9.7438 -0.3296
16 2 13 -0.1461 5.0160
16 2 14 0.2861 -17.1353
16 2 15 -0.8068 -0.4368
16 2 16 4.6617 2.9739
16 2 17 5.6111 -0.1729
16 2 18 -2.4135 7.9388
16 3 0 -0.6933 1.5428
16 3 1 7.6688 4.2067
16 3 2 -13.6416 -7.9439
16 3 3 3.1397 -0.3205
16 3 4 -2.0973 -16.2083
16 3 5 -4.3560 -0.9185
16 3 6 -0.8242 2.0173
16 3 7 -12.4271 -5.4393
16 3 8 -4.3427 17.5792
16 3 9 -7.5030 1.2283
16 3 10 -6.5261 0.2592
16 3 11 -8.6611 -2.2067
16 3 12 2.3397 3.1751
16 3 13 -5.7205 4.9802
16 3 14 -5.0818 -4.2723
16 3 15 -10.6015 -2.1496
16 3 16 2.6700 -8.0174
16 3 17 7.4380 -1.5439
16 3 18 -3.9307 3.6748
16 4 0 -17.7562 2.4217
16 4 1 -3.4581 2.3704
16 4 2 5.3906 0.4652
16 4 3 0.7471 -4.8663
16 4 4 -2.9015 5.8159
16 4 5 2.4140 -7.1457
16 4 6 -1.9839 -2.4817
16 4 7 5.9306 -5.5911
16 4 8 -4.2596 -1.6712
16 4 9 -4.9953 5.7297
16 4 10 5.5984 -1.5697
16 4 11 -6.8404 -6.0463
16 4 12 -1.1991 4.1055
16 4 13 3.8883 -0.4600
16 4 14 16.4520 -5.9224
16 4 15 -9.1827 -2.9372
16 4 16 2.5023 0.1042
16 4 17 1.7930 3.9043
16 5 0 -5.6573 3.7536
16 5 1 1.1476 -6.5270
16 5 2 -1.8928 9.4955
16 5 3 5.4765 -5.5398
16 5 4 -2.2409 -8.3297
16 5 5 -10.7570 0.8831
16 5 6 0.3849 11.0246
16 5 7 -5.9930 5.8841
16 5 8 -13.7894 4.2008
16 5 9 -14.9282 -4.7328
16 5 10 4.6761 2.1552
16 5 11 3.2965 -6.8495
16 5 12 1.3075 -1.3605
16 5 13 -2.4624 -0.8693
16 5 14 14.2503 -0.0485
16 5 15 -0.4305 -11.6059
16 5 16 2.2221 13.4602
16 5 17 -4.2908 -13.1909
16 6 0 -5.4442 -6.4962
16 6 1 -0.5197 -0.9146
16 6 2 -4.3106 -0.5131
16 6 3 -8.6927 -2.3642
16 6 4 -1.8468 4.2541
16 6 5 9.2563 -1.0085
16 6 6 -2.9365 1.7832
16 6 7 1.9672 8.3403
16 6 8 1.8731 -1.3032
16 6 9 6.3626 4.3535
16 6 10 3.3824 6.6278
16 6 11 -3.2915 4.6767
16 6 12 3.0309 -5.4580
16 6 13 -4.3838 -1.0380
16 6 14 -9.2694 6.5081
16 6 15 13.6873 4.7423
16 6 16 -3.3003 0.9202
16 6 17 -1.1691 1.8837
16 7 0 -0.6050 -7.2638
16 7 1 4.0081 -10.2068
16 7 2 -12.2603 8.1656
16 7 3 14.5526 9.5213
16 7 4 -13.7520 -2.5530
16 7 5 2.1614 1.0092
16 7 6 7.2724 -2.1661
16 7 7 -2.4721 -2.2213
16 7 8 -5.4087 6.2984
16 7 9 1.8203 -4.8534
16 7 10 -10.9167 8.6833
16 7 11 -5.2315 5.6190
16 7 12 -5.1906 4.1072
16 7 13 -13.7799 -2.1260
16 7 14 -5.2152 5.0068
16 7 15 -10.5246 -2.2783
16 7 16 3.3526 0.9638
16 8 0 -6.2844 -0.2039
16 8 1 1.2374 4.7422
16 8 2 -11.2107 -7.5499
16 8 3 -0.5831 1.7164
16 8 4 -1.2479 -5.8159
16 8 5 4.5822 2.3148
16 8 6 -9.8765 0.7304
16 8 7 -1.1234 -2.9869
16 8 8 1.6358 2.7066
16 8 9 -4.1955 -10.0343
16 8 10 0.5412 -0.4815
16 8 11 4.4476 -5.8777
16 8 12 15.3932 8.0059
16 8 13 14.1093 -6.5524
16 8 14 6.6217 -1.1856
16 8 15 -3.5891 3.5361
16 8 16 3.2460 -2.4510
16 9 0 1.3953 -5.6628
16 9 1 15.1564 -3.4158
16 9 2 14.9559 -1.9049
16 9 3 5.9865 -7.7799
16 9 4 -8.3230 9.5397
16 9 5 17.6521 10.9253
16 9 6 -12.3528 2.0356
16 9 7 -0.7146 -4.8217
16 9 8 -13.3461 16.9192
16 9 9 14.2021 0.9208
16 9 10 -18.8465 -8.1635
16 9 11 -4.0703 12.4401
16 9 12 -4.3720 2.0145
16 9 13 -14.2289 5.9387
16 9 14 -3.2809 -7.7618
16 9 15 7.5355 -7.9677
16 10 0 -1.9776 10.2180
16 10 1 3.8020 4.6683
16 10 2 -6.8526 -2.9966
16 10 3 -2.4590 5.5139
16 10 4 2.5648 -15.8859
16 10 5 1.6392 -7.1388
16 10 6 13.6979 -2.4886
16 10 7 -3.5967 3.2119
16 10 8 -17.4248 7.0837
16 10 9 -4.5848 -9.6587
16 10 10 1.2272 -2.6963
16 10 11 -11.3795 -8.0165
16 10 12 -5.3467 -3.9258
16 10 13 -13.9296 -8.5746
16 10 14 0.3082 9.9084
16 10 15 -0.1232 -0.8380
16 11 0 9.4218 2.5344
16 11 1 7.7902 0.9390
16 11 2 8.7693 -1.5156
16 11 3 5.3191 15.0282
16 11 4 -3.4732 0.4033
16 11 5 0.4677 2.4589
16 11 6 -8.4967 1.0287
16 11 7 14.7810 1.6165
16 11 8 -1.4773 -9.1381
16 11 9 4.1838 8.6289
16 11 10 10.3774 1.5426
16 11 11 2.1419 5.6686
16 11 12 -1.2064 -4.0958
16 11 13 8.7518 -1.7901
16 11 14 -1.0501 -2.5745
16 12 0 16.1160 12.7366
16 12 1 -2.6681 -8.8221
16 12 2 -4.7954 10.7598
16 12 3 1.2709 -0.2452
16 12 4 5.8474 -5.5205
16 12 5 1.4280 0.7576
16 12 6 0.3700 12.7829
16 12 7 0.2858 -7.5687
16 12 8 6.2642 0.2405
16 12 9 -7.6083 -4.4652
16 12 10 -4.5391 -2.2422
16 12 11 -5.4771 8.4662
16 12 12 -3.2833 7.5804
16 12 13 -3.6080 4.8564
16 13 0 -4.9913 -5.5734
16 13 1 -12.8730 -4.4512
16 13 2 6.7428 8.0238
16 13 3 -3.2909 -13.9820
16 13 4 -8.0649 5.7098
16 13 5 -4.8101 9.1310
16 13 6 7.7516 -6.3838
16 13 7 -6.0798 -4.6279
16 13 8 3.8732 4.0628
16 13 9 -1.6788 3.5414
16 13 10 -0.5894 7.6627
16 13 11 -6.2277 0.1820
16 13 12 -1.9126 7.4118
16 14 0 -7.3398 5.1427
16 14 1 7.9220 4.3895
16 14 2 -0.6591 -11.6535
16 14 3 -5.7342 9.7970
16 14 4 8.7212 -14.5373
16 14 5 -7.8984 1.7959
16 14 6 9.9008 -3.2066
16 14 7 -0.4339 4.8580
16 14 8 0.1881 -2.4827
16 14 9 1.8683 0.1758
16 14 10 6.9326 0.9309
16 14 11 5.4103 0.0684
16 15 0 2.5321 1.6010
16 15 1 -4.3175 -6.2985
16 15 2 -7.8081 -3.7492
16 15 3 9.5642 3.1574
16 15 4 -9.9291 -1.4957
16 15 5 2.1073 -4.6490
16 15 6 1.1670 -4.4959
16 15 7 0.2500 1.6441
16 15 8 5.8380 5.5321
16 15 9 -5.0984 -0.5896
16 16 0 -5.1828 9.4568
16 16 1 3.5145 -5.6383
16 16 2 -6.9295 -10.7878
16 16 3 2.5801 -6.6641
16 16 4 -2.5290 -5.6623
16 16 5 0.6961 -6.7153
16 16 6 -3.7110 -3.0264
16 16 7 3.4404 -3.8082
16 17 0 -0.5502 -0.7968
16 17 1 9.7721 0.0145
16 17 2 -10.2087 5.9287
16 17 3 0.6353 5.0379
16 17 4 -5.9158 -3.1396
17 0 0 -7.0307 -6.3187
17 0 2 -1.5581 6.4149
17 0 4 -8.8060 5.7149
17 0 6 6.4548 -8.9984
17 0 8 0.9921 -2.6750
17 0 10 -0.7246 1.3927
17 0 12 0.6874 9.6094
17 0 14 -7.2755 -0.4023
17 0 16 -2.2091 -7.5013
17 1 0 2.8589 2.3480
17 1 1 -11.0856 7.0647
17 1 2 -0.6950 7.0655
17 1 3 1.8770 3.3768
17 1 4 -18.0231 8.1372
17 1 5 6.6916 9.0857
17 1 6 0.8543 -9.7987
17 1 7 -6.8196 7.7206
17 1 8 15.0520 1.3643
17 1 9 0.2867 3.9421
17 1 10 6.5211 -0.0206
17 1 11 5.7285 1.0640
17 1 12 14.5889 -1.3934
17 1 13 2.1873 -5.3636
17 1 14 11.9564 14.5168
17 1 15 -0.1125 -3.0420
17 1 16 2.7637 6.6697
17 1 17 -0.9371 -0.1265
17 2 0 -2.4801 -2.3021
17 2 1 -0.9287 -4.7691
17 2 2 6.1470 -3.7026
17 2 3 9.4647 -3.4880
17 2 4 -0.3275 0.2990
17 2 5 -9.6172 -7.0369
17 2 6 -0.9832 1.7357
17 2 7 -3.3093 8.5705
17 2 8 4.6392 5.7917
17 2 9 -1.0607 3.5916
17 2 10 -2.3610 -3.4485
17 2 11 3.7060 19.3271
17 2 12 4.1725 -2.0621
17 2 13 -11.6191 -4.4910
17 2 14 -6.9772 2.4436
17 2 15 -3.0181 -7.5456
17 2 16 1.9124 -1.4456
17 2 17 2.8650 -8.9612
17 3 0 14.8449 21.7707
17 3 1 8.5715 -14.4227
17 3 2 -5.9211 2.8891
17 3 3 -0.5046 8.9889
17 3 4 -5.9514 -18.0857
17 3 5 -1.5723 -6.5381
17 3 6 -4.0362 9.1040
17 3 7 -0.6072 0.1060
17 3 8 -5.2885 3.1956
17 3 9 3.5642 -3.3537
17 3 10 -0.6409 7.4582
17 3 11 -9.4835 -2.2050
17 3 12 -7.9017 3.8683
17 3 13 -2.2121 -7.6656
17 3 14 -4.8219 -4.8727
17 3 15 10.1876 -2.4904
17 3 16 -2.8339 2.0487
17 3 17 7.8340 -6.1984
17 4 0 -3.0631 2.2971
17 4 1 -1.8715 1.5089
17 4 2 3.2075 1.7924
17 4 3 -12.8505 -2.2607
17 4 4 2.7005 -2.3544
17 4 5 13.9971 -7.5060
17 4 6 7.4816 -5.9176
17 4 7 1.0115 -2.4808
17 4 8 3.6476 -7.3147
17 4 9 14.1070 6.8395
17 4 10 1.9470 5.7826
17 4 11 -5.3963 2.0180
17 4 12 -9.5984 -17.8135
17 4 13 -6.3191 -1.1048
17 4 14 7.3869 -9.0270
17 4 15 -4.3116 -16.4492
17 4 16 -2.5990 0.0660
17 5 0 -1.1118 -5.9827
17 5 1 0.0317 -1.3737
17 5 2 3.3118 13.8990
17 5 3 19.9471 6.3533
17 5 4 2.7449 10.2043
17 5 5 -10.1313 3.4504
17 5 6 2.2519 -8.0936
17 5 7 -0.2611 -5.5229
17 5 8 -0.8449 3.9451
17 5 9 0.6355 1.2676
17 5 10 -5.6771 -4.8267
17 5 11 1.3848 7.4746
17 5 12 0.6552 -2.4353
17 5 13 -4.7238 -8.6991
17 5 14 5.0550 -1.8170
17 5 15 7.0778 3.8383
17 5 16 3.5389 -7.6300
17 6 0 -6.1707 -1.8929
17 6 1 -16.8674 -3.3652
17 6 2 0.7445 -1.9124
17 6 3 -7.4557 -14.7807
17 6 4 -2.5538 -4.6384
17 6 5 -5.2783 0.2266
17 6 6 1.3666 -3.5153
17 6 7 -2.2116 8.1418
17 6 8 0.6324 5.1599
17 6 9 2.8772 -4.7176
17 6 10 -5.5090 -4.8044
17 6 11 2.1473 -3.0973
17 6 12 -19.3082 0.1684
17 6 13 -7.9067 4.9518
17 6 14 3.3473 -21.1458
17 6 15 -7.2676 -2.4254
17 6 16 5.1679 -3.8632
17 7 0 7.2164 -7.4143
17 7 1 3.5867 -0.9488
17 7 2 12.2087 0.2228
17 7 3 7.4572 9.8065
17 7 4 -0.2738 -7.8805
17 7 5 0.1784 12.9786
17 7 6 5.9952 2.0160
17 7 7 5.4376 0.6482
17 7 8 -10.5054 4.7812
17 7 9 -2.6396 8.8611
17 7 10 -13.6380 8.6183
17 7 11 -6.2212 0.0192
17 7 12 -15.7006 -6.1572
17 7 13 7.7302 9.5661
17 7 14 -4.7827 -16.7208
17 7 15 4.6270 7.3134
17 8 0 2.2591 -3.1886
17 8 1 14.4587 -1.0188
17 8 2 1.9725 -2.7025
17 8 3 2.1346 -2.2574
17 8 4 0.5805 3.1154
17 8 5 7.8747 1.2126
17 8 6 -2.5575 1.6769
17 8 7 -12.5104 4.3338
17 8 8 -12.2284 0.8409
17 8 9 -7.4770 -12.7766
17 8 10 -9.1157 7.8969
17 8 11 5.7785 13.7533
17 8 12 -8.4845 -6.4991
17 8 13 -12.4543 13.4415
17 8 14 0.6459 -3.5307
17 8 15 -6.7260 -14.9314
17 9 0 -4.1930 5.4862
17 9 1 -12.9672 -0.2664
17 9 2 -3.7314 0.1818
17 9 3 10.6087 5.3425
17 9 4 2.9214 0.8284
17 9 5 -1.4514 7.7553
17 9 6 7.3420 -4.5096
17 9 7 0.8140 -8.2581
17 9 8 7.9848 -2.2934
17 9 9 -3.6025 2.0991
17 9 10 5.1380 1.7432
17 9 11 -11.0866 -9.3236
17 9 12 0.6359 -7.2236
17 9 13 0.9909 -11.6442
17 9 14 -0.7485 -4.1699
17 10 0 -3.6587 4.6310
17 10 1 -4.9787 -13.0805
17 10 2 0.3652 2.7388
17 10 3 0.5992 -8.3106
17 10 4 0.2068 2.8466
17 10 5 4.6314 -1.3127
17 10 6 -0.7542 -2.2762
17 10 7 -10.3295 -2.5901
17 10 8 -5.2235 -2.2665
17 10 9 -10.0561 -5.7544
17 10 10 -6.3059 -8.1036
17 10 11 -1.3211 0.3179
17 10 12 4.4536 -2.4737
17 10 13 -4.7667 1.0827
17 11 0 -0.7016 -3.4505
17 11 1 5.0851 -1.1294
17 11 2 8.8700 -2.5510
17 11 3 -3.0872 4.6206
17 11 4 -0.6295 1.8879
17 11 5 4.4180 -1.2235
17 11 6 6.0139 -12.9806
17 11 7 6.3750 -7.0523
17 11 8 13.4984 13.8571
17 11 9 9.3267 -5.6912
17 11 10 6.0597 -3.8281
17 11 11 -4.7626 -14.6893
17 11 12 4.7946 -0.0806
17 12 0 -0.5233 0.5683
17 12 1 5.4272 0.2892
17 12 2 -4.8500 -5.2185
17 12 3 4.0102 0.2844
17 12 4 1.6885 -2.5651
17 12 5 -2.8806 8.0911
17 12 6 3.0545 -0.3665
17 12 7 -8.8815 6.4301
17 12 8 8.0098 3.6808
17 12 9 -12.3733 4.6857
17 12 10 2.2549 -1.3235
17 12 11 -7.4076 -0.2599
17 13 0 -5.8678 2.7594
17 13 1 2.8629 6.6520
17 13 2 -4.8439 -0.8534
17 13 3 6.1652 3.9070
17 13 4 -3.6066 -1.2428
17 13 5 0.5610 1.5775
17 13 6 3.3823 2.0393
17 13 7 -0.7273 -6.0644
17 13 8 0.7381 -0.0647
17 13 9 -7.9950 -7.0718
17 13 10 0.9562 4.7125
17 14 0 0.4036 -3.5920
17 14 1 -2.6962 -10.1571
17 14 2 -1.1301 -1.4011
17 14 3 -1.9676 4.9477
17 14 4 -1.2589 0.4259
17 14 5 -7.9387 12.3858
17 14 6 1.8322 0.8288
17 14 7 -0.1654 -0.0387
17 14 8 0.9450 -4.6871
17 14 9 4.9503 -2.2184
17 15 0 -3.5620 7.1706
17 15 1 -14.0596 6.4941
17 15 2 -8.4186 1.4564
17 15 3 -3.8995 -4.1774
17 15 4 -3.9434 -11.8951
17 15 5 4.9809 2.6407
17 15 6 3.4839 0.5157
17 15 7 -1.9618 6.1427
17 16 0 8.0413 -1.7813
17 16 1 3.7424 12.4786
17 16 2 4.5389 6.9054
17 16 3 6.6729 16.0880
17 16 4 -7.0017 -2.3002
18 0 0 3.5875 4.1118
18 0 2 -6.3364 -12.5507
18 0 4 -19.1001 -3.8343
18 0 6 14.5378 2.4316
18 0 8 10.4111 -8.6571
18 0 10 13.4580 -0.2723
18 0 12 -3.4220 -2.7784
18 0 14 -10.0434 -1.2442
18 0 16 -8.7228 5.3141
18 1 0 -2.9393 3.5579
18 1 1 3.2654 2.1973
18 1 2 13.4968 -4.3655
18 1 3 -3.2269 -8.7272
18 1 4 -1.0195 2.6470
18 1 5 5.9933 9.9127
18 1 6 1.1559 7.5339
18 1 7 -13.8758 0.9189
18 1 8 1.9151 -7.9986
18 1 9 8.1455 0.3263
18 1 10 6.3413 -5.5194
18 1 11 3.8342 0.0412
18 1 12 2.2562 -4.4140
18 1 13 -1.3819 2.8576
18 1 14 2.3640 -2.7143
18 1 15 -1.7172 11.7532
18 1 16 -6.8264 -2.4378
18 2 0 -0.6235 -3.4167
18 2 1 -5.2420 0.4705
18 2 2 4.5557 8.9503
18 2 3 -2.5794 -9.1349
18 2 4 0.7406 -18.0532
18 2 5 -4.9898 6.5929
18 2 6 2.5822 -12.2878
18 2 7 -8.6263 -4.3742
18 2 8 5.7873 -2.9257
18 2 9 -2.9281 5.4918
18 2 10 -6.8418 -7.5131
18 2 11 1.7636 4.6969
18 2 12 -0.6384 -7.2304
18 2 13 -0.0173 9.4074
18 2 14 -3.1995 3.3514
18 2 15 -11.1361 8.0275
18 2 16 -5.5118 -2.5507
18 3 0 -9.3343 -5.9385
18 3 1 5.9154 1.4461
18 3 2 12.5421 -9.1755
18 3 3 8.6466 -10.7418
18 3 4 9.9699 14.6099
18 3 5 -1.1774 -1.0594
18 3 6 -5.2571 -6.9652
18 3 7 3.2952 9.8038
18 3 8 -4.8437 3.0492
18 3 9 -10.3024 6.2362
18 3 10 8.3672 -2.5752
18 3 11 2.2791 -1.1044
18 3 12 -2.4097 4.6351
18 3 13 -3.9761 2.0129
18 3 14 4.0260 -4.4541
18 3 15 -10.4232 -1.6291
18 4 0 5.6064 1.4814
18 4 1 -2.3292 -4.2857
18 4 2 -2.3052 -1.5581
18 4 3 -6.5561 2.9492
18 4 4 5.3518 8.1188
18 4 5 -0.3414 -5.7876
18 4 6 -4.2033 7.3380
18 4 7 2.2623 2.2191
18 4 8 -6.3756 -6.8569
18 4 9 1.6351 -9.3968
18 4 10 -9.3109 -2.8256
18 4 11 7.0067 11.7344
18 4 12 -1.9173 -6.9780
18 4 13 -1.3331 7.8341
18 4 14 -1.1790 9.0330
18 4 15 -0.8624 1.5240
18 5 0 -3.7084 -9.0482
18 5 1 0.3846 -6.6838
18 5 2 -0.2619 -11.2173
18 5 3 12.9602 3.3724
18 5 4 11.5050 2.6102
18 5 5 -0.1804 -5.9779
18 5 6 -5.7870 -4.8000
18 5 7 -7.7638 -0.5842
18 5 8 5.9799 -7.6503
18 5 9 -3.5502 -0.1358
18 5 10 0.5618 7.6373
18 5 11 -3.7664 4.9697
18 5 12 5.6868 1.1358
18 5 13 -3.3745 1.7040
18 5 14 -5.1922 7.6544
18 5 15 7.2614 3.7674
18 6 0 -8.3564 1.5649
18 6 1 0.4340 6.6558
18 6 2 -1.7746 6.6965
18 6 3 0.5893 -5.3431
18 6 4 1.8318 -3.7329
18 6 5 2.4638 0.2440
18 6 6 -7.6261 5.2240
18 6 7 1.0037 2.3903
18 6 8 -16.4944 -5.2288
18 6 9 2.8476 8.6738
18 6 10 1.8740 -9.4279
18 6 11 6.7562 1.8231
18 6 12 8.0851 -8.2415
18 6 13 -1.8461 -2.3772
18 6 14 -4.4753 -17.1173
18 7 0 8.9389 6.8418
18 7 1 -13.1616 -9.4448
18 7 2 -3.4302 -0.5765
18 7 3 1.7581 -9.0032
18 7 4 -7.0716 -8.2026
18 7 5 -0.1158 -2.6598
18 7 6 -8.9191 -0.8530
18 7 7 1.2666 6.1972
18 7 8 3.6948 -1.2746
18 7 9 -2.7650 10.2805
18 7 10 -6.9173 -1.6963
18 7 11 -10.2518 4.8790
18 7 12 3.7994 5.7742
18 7 13 -3.2495 4.3963
18 7 14 -9.6076 10.7351
18 8 0 -7.5641 15.8498
18 8 1 -2.2804 -4.1097
18 8 2 -13.5532 -9.7512
18 8 3 3.9145 -5.4215
18 8 4 -7.4513 0.5126
18 8 5 7.5583 -1.1556
18 8 6 -9.6706 -0.6623
18 8 7 9.6343 3.2100
18 8 8 -5.2114 9.5769
18 8 9 7.1138 5.8579
18 8 10 -7.0679 -8.9699
18 8 11 4.4082 8.2191
18 8 12 -8.8750 -2.9888
18 8 13 1.1641 19.8016
18 9 0 -9.7541 0.0295
18 9 1 -19.5703 0.5055
18 9 2 -7.7747 11.0860
18 9 3 -0.1312 -8.7731
18 9 4 -6.5623 -1.1255
18 9 5 0.8931 7.7976
18 9 6 -2.4272 -9.7243
18 9 7 10.1415 -4.8327
18 9 8 -13.4522 0.6900
18 9 9 -9.6523 11.2156
18 9 10 -13.7824 -4.0595
18 9 11 -16.1029 2.2792
18 9 12 -2.3682 1.9378
18 9 13 -14.2218 -9.2741
18 10 0 -9.9956 15.2498
18 10 1 -6.2722 2.6955
18 10 2 -8.5477 6.8689
18 10 3 -1.0782 -2.4647
18 10 4 0.7192 -4.6325
18 10 5 12.1704 -0.4670
18 10 6 9.3117 8.6379
18 10 7 7.0446 1.3886
18 10 8 -7.1888 1.1259
18 10 9 -2.9381 6.5616
18 10 10 -4.2726 0.0111
18 10 11 -0.7205 0.7386
18 10 12 6.8626 -11.4149
18 11 0 0.2564 -9.8116
18 11 1 -0.2563 7.8801
18 11 2 -3.7068 -10.7155
18 11 3 -9.1569 -2.3116
18 11 4 5.7554 -5.2859
18 11 5 1.3629 3.5254
18 11 6 -3.5598 13.3475
18 11 7 -1.2744 14.0725
18 11 8 -4.0698 8.0238
18 11 9 -6.2286 4.4080
18 11 10 1.0679 2.9047
18 11 11 -3.2353 2.8957
18 12 0 9.7915 1.9627
18 12 1 9.5595 -7.1010
18 12 2 -5.5069 -1.7481
18 12 3 6.2617 5.0235
18 12 4 5.8856 6.6970
18 12 5 2.1531 5.6003
18 12 6 -7.5644 -7.4048
18 12 7 4.3742 2.7714
18 12 8 3.1163 -2.2253
18 12 9 3.2689 -5.2897
18 12 10 -3.0697 -4.6273
18 13 0 -3.9032 -4.5023
18 13 1 3.5413 -1.8103
18 13 2 -0.3092 -8.8422
18 13 3 8.5647 0.8823
18 13 4 3.0121 3.5442
18 13 5 -0.3776 1.9586
18 13 6 6.9863 7.5873
18 13 7 -3.4586 -2.6348
18 13 8 1.4435 5.5822
18 14 0 9.7511 -5.9983
18 14 1 -1.1663 -1.7354
18 14 2 12.1845 -7.0166
18 14 3 -9.3558 -2.8414
18 14 4 3.1122 -12.4570
18 14 5 3.4312 -9.0155
18 14 6 -0.8941 0.2379
18 15 0 2.5569 0.9654
18 15 1 1.3454 5.0190
18 15 2 -1.7690 -3.5952
18 15 3 -10.0643 13.8111
19 0 0 5.0059 1.5370
19 0 2 -5.8134 -12.2219
19 0 4 12.3478 1.2008
19 0 6 5.4424 11.8918
19 0 8 17.2002 -1.9117
19 0 10 -5.3437 -1.8608
19 0 12 4.0067 -2.7794
19 0 14 2.9555 6.6796
19 1 0 10.8233 -9.7525
19 1 1 -4.3699 -11.2090
19 1 2 -1.7631 -8.0066
19 1 3 4.3123 -2.8911
19 1 4 -2.8747 -3.9193
19 1 5 -1.1466 -4.6302
19 1 6 2.2426 -3.6838
19 1 7 8.9084 -8.3034
19 1 8 11.6092 -0.3624
19 1 9 1.6561 -1.2850
19 1 10 6.5012 -0.5393
19 1 11 -2.8661 2.9652
19 1 12 0.9764 3.7437
19 1 13 1.1526 -3.5711
19 1 14 1.3553 1.0544
19 2 0 4.4586 2.8365
19 2 1 -3.8802 7.2107
19 2 2 5.4197 -1.8032
19 2 3 2.2611 -2.4286
19 2 4 12.4400 -1.0366
19 2 5 -4.2126 3.5513
19 2 6 4.0310 2.1792
19 2 7 -4.2930 3.1065
19 2 8 -6.6842 6.3348
19 2 9 1.3188 -3.2325
19 2 10 6.4531 -3.2729
19 2 11 1.2601 -4.9640
19 2 12 1.1502 -3.6750
19 2 13 7.5257 -1.5766
19 2 14 0.2273 -3.1115
19 3 0 -1.0361 8.8471
19 3 1 -2.3770 8.7802
19 3 2 9.4145 3.2448
19 3 3 -2.7553 -15.8623
19 3 4 -5.8262 11.5650
19 3 5 -3.2739 6.5755
19 3 6 -14.4211 -9.6659
19 3 7 -2.6250 3.4044
19 3 8 8.3704 -0.3625
19 3 9 1.8116 10.8109
19 3 10 8.9874 3.6186
19 3 11 3.1051 -4.0591
19 3 12 6.4289 2.8530
19 3 13 6.6690 6.5769
19 3 14 4.6836 -3.9681
19 4 0 -4.0434 -10.2210
19 4 1 -2.8212 15.9118
19 4 2 -2.8954 -4.5273
19 4 3 -7.7849 -0.3601
19 4 4 7.1414 -3.5715
19 4 5 1.0381 13.6228
19 4 6 5.5430 8.8273
19 4 7 -10.0679 7.8338
19 4 8 -0.8264 2.2862
19 4 9 -7.5026 -3.7211
19 4 10 -16.9800 7.7525
19 4 11 3.0716 -4.9990
19 4 12 -2.9119 -3.9509
19 4 13 -7.7420 2.0726
19 4 14 -2.2433 -2.0306
19 5 0 9.6315 -3.1378
19 5 1 -7.3341 0.3094
19 5 2 -7.0380 3.6888
19 5 3 -2.0464 3.3396
19 5 4 -10.5762 4.9714
19 5 5 10.3633 -3.1737
19 5 6 -3.0225 1.5721
19 5 7 1.4248 -1.5342
19 5 8 7.4506 -3.5279
19 5 9 -2.7550 14.9055
19 5 10 13.5806 10.1730
19 5 11 -12.4406 6.9079
19 5 12 4.2858 3.1904
19 5 13 0.3340 -0.1452
19 6 0 0.9136 -0.8189
19 6 1 1.4930 -0.1163
19 6 2 -2.7112 -9.2426
19 6 3 5.0512 10.2145
19 6 4 4.5223 -5.6761
19 6 5 3.1173 -4.0626
19 6 6 0.0451 -3.9589
19 6 7 2.1562 12.1918
19 6 8 -0.2431 3.4975
19 6 9 -9.9897 4.2579
19 6 10 -1.2508 -5.2354
19 6 11 8.1085 6.9446
19 6 12 -10.9229 -7.1020
19 6 13 -3.6538 6.2042
19 7 0 9.5785 13.7474
19 7 1 4.7346 3.7372
19 7 2 -1.0068 4.8045
19 7 3 -5.1302 -8.6256
19 7 4 19.3404 2.3837
19 7 5 9.9304 -5.1150
19 7 6 -4.3624 -4.6325
19 7 7 2.1041 13.5014
19 7 8 5.3459 -7.6580
19 7 9 -9.7871 -0.1927
19 7 10 -1.0974 -7.1629
19 7 11 4.5362 4.6601
19 7 12 -1.9258 0.4755
19 8 0 -1.1372 11.4069
19 8 1 -5.1213 13.5804
19 8 2 -6.6613 8.0552
19 8 3 -4.3918 4.3988
19 8 4 1.2975 -5.3674
19 8 5 6.6459 4.5249
19 8 6 4.0355 -0.4100
19 8 7 -4.1644 2.0109
19 8 8 -3.0617 -1.2403
19 8 9 8.2818 -8.4812
19 8 10 -7.8369 2.0274
19 8 11 2.6875 1.9345
19 8 12 6.1744 2.5115
19 9 0 -11.2209 -9.5078
19 9 1 -4.8011 3.7545
19 9 2 -12.1695 -8.2979
19 9 3 -2.9036 0.7537
19 9 4 -0.8746 -7.2578
19 9 5 -2.2631 5.0813
19 9 6 6.5442 -2.8595
19 9 7 -6.0000 -6.1744
19 9 8 4.1618 0.5246
19 9 9 6.2741 -9.8558
19 9 10 2.6769 7.7435
19 9 11 2.0515 -0.0930
19 10 0 -4.5668 -1.0857
19 10 1 6.5607 0.5203
19 10 2 -2.9516 -0.5920
19 10 3 -0.7868 0.6526
19 10 4 1.8909 -3.3518
19 10 5 -5.2357 4.1984
19 10 6 7.2021 -0.3465
19 10 7 3.1204 -2.3750
19 10 8 2.9418 2.0442
19 10 9 1.1318 1.5282
19 10 10 2.1656 -0.9607
19 11 0 -5.2159 -0.7037
19 11 1 -10.2445 2.1163
19 11 2 -4.0964 2.3165
19 11 3 -1.8249 3.1321
19 11 4 -14.1570 -2.5204
19 11 5 6.0850 -0.9151
19 11 6 2.7235 0.9623
19 11 7 -0.0483 -3.3812
19 11 8 -5.6961 -0.9244
19 11 9 7.5916 -3.8502
19 12 0 0.5961 3.8652
19 12 1 -6.3687 -0.1355
19 12 2 -3.5908 -0.8660
19 12 3 -10.0512 9.9582
19 12 4 -1.0055 -3.5080
19 12 5 -5.5274 6.7166
19 12 6 6.3562 2.9096
19 12 7 -4.5866 -0.8710
19 13 0 3.4874 -1.9135
19 13 1 1.6353 3.6314
19 13 2 11.0584 3.1104
19 13 3 -5.4319 8.5112
19 13 4 2.1199 -6.0078
19 13 5 3.0920 0.3672
19 14 0 -0.0831 -5.8507
19 14 1 5.2590 -7.1536
20 0 0 -1.9347 -7.2932
20 0 2 16.7229 -12.1789
20 0 4 -7.4484 11.7398
20 0 6 -16.8412 -8.9297
20 0 8 2.9150 -5.1393
20 0 10 -3.0616 2.9753
20 0 12 0.1826 -0.9444
20 1 0 -4.6512 4.0300
20 1 1 -2.4433 -5.3081
20 1 2 -5.7947 1.6648
20 1 3 8.5591 -10.5275
20 1 4 5.9875 -6.0893
20 1 5 -6.0344 -2.4130
20 1 6 -6.4904 3.1174
20 1 7 10.4966 -3.3177
20 1 8 -2.6117 3.3077
20 1 9 0.4187 10.8348
20 1 10 -9.5824 0.2816
20 1 11 -2.7010 -2.5891
20 1 12 -3.3407 -3.2635
20 1 13 -2.0221 -6.6077
20 2 0 0.4489 -5.8026
20 2 1 10.8353 5.4788
20 2 2 0.7329 -4.5596
20 2 3 1.9431 2.0836
20 2 4 14.7226 -3.8355
20 2 5 -6.6227 2.8288
20 2 6 7.6551 4.4689
20 2 7 4.8998 5.5695
20 2 8 3.2693 -4.6513
20 2 9 -4.2482 1.6618
20 2 10 8.3388 -4.5860
20 2 11 -0.8125 -4.3016
20 2 12 2.4053 7.8222
20 3 0 -0.8711 -1.0410
20 3 1 -3.7282 10.2324
20 3 2 -3.0033 -7.2276
20 3 3 0.1534 4.3273
20 3 4 -5.4298 -10.3257
20 3 5 10.0423 -1.6602
20 3 6 12.6527 -6.0475
20 3 7 -3.6269 3.9602
20 3 8 3.7746 -1.9703
20 3 9 8.1902 -5.0810
20 3 10 6.1746 2.8635
20 3 11 0.3451 3.6218
20 3 12 4.6595 -3.1178
20 4 0 2.1053 0.8446
20 4 1 -4.3829 -5.7461
20 4 2 2.2346 -4.3186
20 4 3 -2.1513 3.2739
20 4 4 -14.5547 -9.9367
20 4 5 -3.5720 -3.3715
20 4 6 -2.4797 -7.7573
20 4 7 1.0998 -0.6496
20 4 8 -1.4421 0.3180
20 4 9 5.9731 6.9954
20 4 10 10.4852 -14.4964
20 4 11 -4.9550 3.0526
20 4 12 7.0183 -0.1638
20 5 0 -4.4277 -9.6292
20 5 1 -6.8051 -0.8676
20 5 2 -4.0021 -6.9298
20 5 3 -10.4944 -6.9447
20 5 4 -2.0655 -11.4492
20 5 5 -5.5807 0.1458
20 5 6 6.3080 1.4256
20 5 7 -2.1498 -5.7997
20 5 8 -2.9041 4.7996
20 5 9 2.2609 8.9648
20 5 10 3.3954 -0.7439
20 5 11 -0.5085 13.2763
20 6 0 6.8860 -1.1115
20 6 1 0.3435 -1.7034
20 6 2 1.5095 2.2647
20 6 3 7.7125 -3.0893
20 6 4 7.9403 0.9261
20 6 5 0.7419 0.0090
20 6 6 -0.3314 -1.6778
20 6 7 1.5804 -4.7125
20 6 8 -2.8455 -16.5006
20 6 9 -5.6388 -4.5515
20 6 10 0.3177 -1.8143
20 6 11 8.1326 3.7646
20 7 0 -10.5678 1.6307
20 7 1 -5.6725 -3.7150
20 7 2 3.5916 3.4717
20 7 3 0.4497 -1.6790
20 7 4 7.8456 1.8138
20 7 5 5.4021 -4.3416
20 7 6 6.6964 -3.9522
20 7 7 -3.8686 9.4422
20 7 8 5.5107 3.9682
20 7 9 -2.1794 7.7026
20 7 10 3.0425 2.5447
20 8 0 5.2930 4.2949
20 8 1 4.5133 -8.8840
20 8 2 6.4773 -5.5595
20 8 3 5.1510 1.1841
20 8 4 2.7645 -4.0152
20 8 5 -1.4860 -4.7858
20 8 6 2.7081 -7.2647
20 8 7 0.8137 -5.3828
20 8 8 -2.1941 1.4661
20 8 9 3.8558 -1.3710
20 8 10 0.9347 -4.0330
20 9 0 4.3524 -3.9330
20 9 1 -0.3472 -4.5888
20 9 2 3.4298 4.4076
20 9 3 0.2093 6.2271
20 9 4 -4.7055 4.8737
20 9 5 6.3808 1.1001
20 9 6 6.7886 -0.7881
20 9 7 11.3470 11.5119
20 9 8 4.9470 -1.7976
20 9 9 1.6039 3.6007
20 10 0 -2.8379 -8.0600
20 10 1 -11.2690 -3.8586
20 10 2 -3.8262 1.2727
20 10 3 -3.1106 0.0259
20 10 4 8.1783 -1.7703
20 10 5 0.6114 0.0485
20 10 6 3.1369 6.2610
20 10 7 -3.0300 1.4877
20 11 0 8.9487 1.7348
20 11 1 -11.5968 -6.6773
20 11 2 5.9539 9.4693
20 11 3 -3.8054 -5.4444
20 11 4 -1.5809 -3.5598
20 11 5 -1.4659 -0.7038
20 11 6 -2.0365 -4.7781
20 12 0 -2.8845 1.6098
20 12 1 0.3091 9.3846
20 12 2 0.9028 -6.4468
20 12 3 -6.7621 0.2230
21 0 0 13.4803 8.6803
21 0 2 -6.9181 6.1200
21 0 4 -11.5215 4.4076
21 0 6 -7.4420 -6.0137
21 0 8 0.5029 7.6517
21 0 10 -3.9705 -3.6848
21 1 0 5.8069 5.0187
21 1 1 -4.9690 6.1821
21 1 2 5.5164 -7.9494
21 1 3 -4.7430 8.9173
21 1 4 8.1722 3.2387
21 1 5 2.0896 -9.3429
21 1 6 -1.1901 16.0187
21 1 7 2.4015 7.0043
21 1 8 -9.1311 2.3760
21 1 9 3.5679 -2.8873
21 1 10 -0.5342 -1.8385
21 1 11 -0.5747 -2.5623
21 2 0 5.3978 -1.1160
21 2 1 -5.7647 2.9340
21 2 2 4.6908 11.7389
21 2 3 4.1837 -3.8956
21 2 4 -10.0417 6.5707
21 2 5 2.2774 10.1813
21 2 6 -4.8488 -4.3291
21 2 7 -19.5676 7.9634
21 2 8 -4.6078 -7.6941
21 2 9 -6.6520 -11.5991
21 2 10 -1.4575 5.5589
21 3 0 -9.0154 -1.2851
21 3 1 -5.6005 3.2441
21 3 2 -2.2421 6.2204
21 3 3 -1.5935 2.7309
21 3 4 0.7284 2.8636
21 3 5 -11.2708 -14.4872
21 3 6 -5.0992 4.5933
21 3 7 6.3200 -14.6515
21 3 8 -4.9208 -3.3368
21 3 9 5.4566 -5.5105
21 3 10 6.3029 -2.7712
21 4 0 0.5471 -1.0376
21 4 1 -2.7291 -10.2763
21 4 2 3.7299 -2.2745
21 4 3 3.6942 -3.9372
21 4 4 -2.6771 2.5324
21 4 5 -2.2828 -4.4541
21 4 6 -13.8262 3.2841
21 4 7 -4.0890 -3.5905
21 4 8 -6.4618 -0.7988
21 4 9 -1.1897 -1.9650
21 4 10 -2.2755 -4.8270
21 5 0 -10.2800 -2.1167
21 5 1 2.4869 5.3542
21 5 2 -4.2623 -2.2420
21 5 3 -10.6980 -0.1063
21 5 4 -2.8938 4.0439
21 5 5 -9.1666 -12.2296
21 5 6 -7.9944 7.3102
21 5 7 10.0902 -15.5818
21 5 8 -1.4321 -1.6152
21 5 9 1.0170 -2.2270
21 6 0 0.4667 -4.1361
21 6 1 -0.0780 -1.4973
21 6 2 7.6081 2.1872
21 6 3 -1.9067 -1.5158
21 6 4 -2.6068 -0.2282
21 6 5 2.2031 0.3175
21 6 6 -0.8998 0.7423
21 6 7 -3.6493 5.8424
21 6 8 -8.4847 4.1136
21 6 9 -3.8559 -5.6046
21 7 0 -12.8360 -9.4594
21 7 1 -1.2389 -3.9059
21 7 2 -0.0317 -3.6688
21 7 3 -1.0481 -0.8597
21 7 4 -3.9828 3.8278
21 7 5 -3.9378 -8.4785
21 7 6 3.2405 -5.2996
21 7 7 -0.2386 -6.0118
21 7 8 0.5025 -2.2164
21 8 0 3.0022 -7.6600
21 8 1 -5.9813 -1.9145
21 8 2 5.7714 5.6534
21 8 3 4.0900 -1.3461
21 8 4 4.8104 2.9903
21 8 5 10.0393 6.6015
21 8 6 3.1203 3.8210
21 8 7 0.8197 1.6838
21 9 0 7.1045 -5.8408
21 9 1 -0.0524 3.9819
21 9 2 4.9421 2.5854
21 9 3 -0.3192 2.1732
21 9 4 -1.7985 5.7999
21 9 5 -1.5263 0.9445
21 10 0 11.4118 2.6232
21 10 1 8.6561 5.3780
21 10 2 1.6946 4.7693
21 10 3 10.6283 9.0484
22 0 0 9.4366 -5.2804
22 0 2 6.6330 -13.1919
22 0 4 -4.7143 8.3837
22 0 6 -4.3101 -0.7774
22 0 8 7.2685 -13.4319
22 1 0 3.4663 8.5776
22 1 1 -4.0931 -1.1269
22 1 2 3.5955 -6.2875
22 1 3 6.9720 10.8516
22 1 4 -0.9642 2.3649
22 1 5 -1.8663 -2.0427
22 1 6 -1.9841 -7.0895
22 1 7 -4.1699 5.2255
22 1 8 -5.8276 -3.2022
22 2 0 5.0979 -0.6010
22 2 1 -3.2581 11.4406
22 2 2 3.2313 8.4770
22 2 3 -3.8428 9.4736
22 2 4 1.6038 8.4499
22 2 5 -7.3609 1.8870
22 2 6 -11.7085 4.1661
22 2 7 -8.7026 4.9048
22 2 8 -4.1310 -3.7728
22 3 0 7.6105 -1.8920
22 3 1 -5.7886 -0.7928
22 3 2 6.1847 -2.8308
22 3 3 3.8273 -9.5310
22 3 4 2.4343 -3.3368
22 3 5 3.2317 10.3071
22 3 6 -1.7542 -1.4354
22 3 7 2.4278 -7.6484
22 3 8 -1.3804 8.9134
22 4 0 7.6924 -1.3090
22 4 1 9.2923 -2.7737
22 4 2 1.3050 -0.4356
22 4 3 1.4009 -2.4292
22 4 4 7.0119 -12.0779
22 4 5 10.0325 0.1444
22 4 6 6.4003 -6.3130
22 4 7 2.5687 4.7289
22 5 0 6.7265 -3.1687
22 5 1 -2.1731 -6.4879
22 5 2 6.8576 0.1650
22 5 3 4.3143 1.3354
22 5 4 11.7153 -2.8769
22 5 5 5.8215 -1.1044
22 5 6 3.9092 -0.5139
22 6 0 2.8077 -7.0911
22 6 1 -9.1099 5.5857
22 6 2 9.3317 -3.1854
22 6 3 -2.6038 -5.8142
22 6 4 7.1138 6.1451
22 6 5 1.5613 -4.0649
22 7 0 5.4555 1.5675
22 7 1 1.9405 1.1479
22 7 2 -1.2122 -0.3968
22 7 3 -0.3243 3.6409
22 7 4 2.3302 1.2081
22 8 0 10.1807 1.7870
22 8 1 1.2292 1.7491
22 8 2 3.6082 -1.7875
23 0 0 8.4870 3.0265
23 0 2 3.0943 -5.4801
23 0 4 -4.2436 -5.1273
23 1 0 -13.3480 -1.9552
23 1 1 -4.0064 -4.6083
23 1 2 4.7092 3.8612
23 1 3 -13.3600 -0.2850
23 1 4 -2.1394 10.3522
23 2 0 2.4495 -3.3008
23 2 1 -2.8545 -5.6696
23 2 2 -8.2580 -0.3900
23 2 3 -0.5804 -14.4245
23 2 4 -5.0113 -11.6916
23 3 0 -8.8627 5.4965
23 3 1 4.2265 7.9077
23 3 2 -13.9603 5.1610
23 3 3 -6.0152 0.6262
23 4 0 -6.0781 -2.9557
23 4 1 -0.3998 2.5176
23 4 2 -4.1058 -2.8119
0 0 0 0.0 0.0
;
_shelx_fab_checksum              348
_olex2_submission_special_instructions 'No special instructions were received'
_oxdiff_exptl_absorpt_empirical_details
;
Empirical correction (ABSPACK) includes:
- Absorption correction using spherical harmonics
- Frame scaling
;
_oxdiff_exptl_absorpt_empirical_full_max 2.193
_oxdiff_exptl_absorpt_empirical_full_min 0.639
loop_
_space_group_symop_operation_xyz
'x, y, z'
'x, -y, z+1/2'
loop_
_atom_site_label
_atom_site_type_symbol
_atom_site_fract_x
_atom_site_fract_y
_atom_site_fract_z
_atom_site_U_iso_or_equiv
_atom_site_adp_type
_atom_site_occupancy
_atom_site_site_symmetry_order
_atom_site_calc_flag
_atom_site_refinement_flags_posn
_atom_site_refinement_flags_adp
_atom_site_refinement_flags_occupancy
_atom_site_disorder_assembly
_atom_site_disorder_group
Mg1 Mg 0.3758(2) 0.86547(17) 0.32076(18) 0.0326(9) Uani 1 1 d . . . . .
Mg2 Mg 0.8700(2) 1.13451(19) 0.3330(2) 0.0469(12) Uani 1 1 d . . . . .
Mg3 Mg 0.36740(19) 0.36574(16) 0.34012(18) 0.0268(6) Uani 1 1 d . . . . .
Mg4 Mg 0.8725(2) 0.63322(18) 0.3276(3) 0.0512(12) Uani 1 1 d . . . . .
O1 O 0.4624(4) 0.8450(4) 0.4591(4) 0.0386(6) Uani 1 1 d . . . . .
O2 O 0.4786(4) 0.7919(3) 0.0559(4) 0.0412(8) Uani 1 1 d . . . . .
O3 O 0.4096(3) 0.8628(3) 0.2263(3) 0.0258(6) Uani 1 1 d . . . . .
O6 O 0.3999(4) 0.6508(4) 0.3499(4) 0.0337(8) Uiso 1 1 d . . . . .
O5 O 0.5792(4) 1.0559(4) 0.2302(5) 0.0535(5) Uani 1 1 d . . . . .
O123 O 0.3628(3) 0.3346(3) 0.5418(3) 0.0268(6) Uani 1 1 d . . . . .
O7 O 0.3411(3) 0.7680(3) 0.1987(3) 0.0258(6) Uani 1 1 d . . . . .
O8 O 0.2302(4) 0.8767(4) 0.3885(4) 0.0386(6) Uani 1 1 d . . . . .
O9 O 0.9555(5) 1.1426(4) 0.4666(4) 0.0475(8) Uani 1 1 d . . . . .
O10 O 1.0564(5) 1.0939(7) 0.4428(5) 0.0804(11) Uani 1 1 d . . . . .
O11 O 0.4490(3) 0.3698(3) 0.4775(3) 0.0208(12) Uani 1 1 d . . . . .
O12 O 0.0826(4) 0.9503(4) 0.2317(4) 0.0393(16) Uiso 1 1 d . . . . .
O4 O 0.9696(4) 0.7111(4) 0.0606(5) 0.0535(5) Uani 1 1 d . . . . .
O14 O 0.5542(4) 0.4134(4) 0.4505(4) 0.0408(9) Uani 1 1 d . . . . .
O15 O 0.7257(5) 1.1170(4) 0.3989(4) 0.0475(8) Uani 1 1 d . . . . .
O16 O 0.3285(4) 1.2459(4) 0.2405(4) 0.0412(8) Uani 1 1 d . . . . .
O17 O 0.3962(4) 1.1578(4) 0.3997(4) 0.0412(8) Uani 1 1 d . . . . .
O18 O 0.4993(4) 0.9762(4) 0.3034(4) 0.0412(8) Uani 1 1 d . . . . .
O19 O 0.3670(4) 0.7847(4) 0.5115(4) 0.0386(6) Uani 1 1 d . . . . .
O20 O 0.9931(4) 0.5232(4) 0.3001(5) 0.0535(5) Uani 1 1 d . . . . .
O21 O 1.0885(4) 0.5759(4) 0.3463(5) 0.0535(5) Uani 1 1 d . . . . .
O22 O 0.5566(5) 0.9000(4) 0.4373(5) 0.062(2) Uani 1 1 d . . . . .
O23 O 0.3644(4) 0.4690(4) 0.3162(4) 0.0386(6) Uani 1 1 d . . . . .
O24 O 0.3044(4) 0.5744(4) 0.3171(4) 0.0337(8) Uiso 1 1 d . . . . .
O25 O 0.3745(4) 0.7584(4) 0.3053(4) 0.0337(8) Uiso 1 1 d . . . . .
O26 O 0.2773(3) 0.8811(3) 0.2859(3) 0.0258(9) Uani 1 1 d . . . . .
O27 O 0.5813(4) 0.4240(4) 0.3438(4) 0.0408(9) Uani 1 1 d . . . . .
O28 O 0.3787(5) 0.2891(6) 0.1496(4) 0.0715(14) Uani 1 1 d . . . . .
O29 O 0.3467(4) 0.8417(4) 0.4056(4) 0.0386(6) Uani 1 1 d . . . . .
O30 O 0.2490(4) 0.3420(3) 0.5054(3) 0.0288(11) Uani 1 1 d . . . . .
O31 O 0.0819(3) 0.4425(3) 0.2295(3) 0.0252(8) Uani 1 1 d . . . . .
O32 O 0.6900(5) 1.0900(4) 0.2116(5) 0.0535(5) Uani 1 1 d . . . . .
O33 O 0.3461(4) 0.6626(3) 0.2453(4) 0.0337(8) Uiso 1 1 d . . . . .
O34 O 0.5009(3) 0.8291(3) 0.1564(3) 0.0258(6) Uani 1 1 d . . . . .
O35 O 0.6003(4) 0.9147(4) 0.3367(4) 0.0386(6) Uani 1 1 d . . . . .
O36 O 0.5872(4) 0.5469(4) 0.2288(4) 0.0415(9) Uani 1 1 d . . . . .
O37 O 0.1537(3) 0.4210(3) 0.3234(3) 0.0252(8) Uani 1 1 d . . . . .
O38 O 0.2965(3) 0.8788(3) 0.1743(3) 0.0258(6) Uani 1 1 d . . . . .
O39 O 0.4843(4) 0.8707(4) 0.3574(4) 0.0386(6) Uani 1 1 d . . . . .
O40 O 0.9920(5) 1.0246(6) 0.3004(5) 0.0804(11) Uani 1 1 d . . . . .
O41 O 0.4384(4) 1.0770(4) 0.3385(4) 0.0412(8) Uani 1 1 d . . . . .
O42 O 0.7517(5) 1.1575(4) 0.5014(4) 0.0475(8) Uani 1 1 d . . . . .
O43 O 0.2778(4) 0.8639(4) 0.4988(4) 0.0386(6) Uani 1 1 d . . . . .
O44 O 0.9076(5) 1.1448(6) 0.2308(5) 0.0804(11) Uani 1 1 d . . . . .
O45 O 0.7662(5) 1.1286(4) 0.2988(5) 0.0535(5) Uani 1 1 d . . . . .
O46 O 0.8634(4) 1.1649(4) 0.5405(4) 0.0475(8) Uani 1 1 d . . . . .
O47 O 0.6587(5) 0.5745(5) 0.3172(5) 0.0611(10) Uani 1 1 d . . . . .
O48 O 0.3687(4) 1.2577(4) 0.3437(4) 0.0412(8) Uani 1 1 d . . . . .
O49 O 0.1595(3) 0.9261(3) 0.3136(3) 0.0258(9) Uani 1 1 d . . . . .
O50 O 0.4832(4) 0.4745(4) 0.2970(4) 0.0386(6) Uani 1 1 d . . . . .
O51 O 0.8715(6) 1.0274(4) 0.3244(5) 0.072(4) Uani 1 1 d . . . . .
O52 O 0.2204(4) 0.3871(3) 0.4099(3) 0.0288(11) Uani 1 1 d . . . . .
B1 B 0.3102(7) 0.8185(7) 0.5306(7) 0.0386(6) Uani 1 1 d . . . . .
O53 O 1.0565(4) 0.5983(4) 0.4423(5) 0.0535(5) Uani 1 1 d . . . . .
O54 O 0.5312(3) 0.8751(3) 0.2498(3) 0.0258(6) Uani 1 1 d . . . . .
O55 O 0.3194(4) 1.0714(4) 0.3681(5) 0.062(2) Uani 1 1 d . . . . .
O56 O 0.2558(4) 0.9879(4) 0.3442(4) 0.0380(19) Uani 1 1 d . . . . .
O57 O 1.0901(5) 1.0824(6) 0.3344(5) 0.0804(11) Uani 1 1 d . . . . .
B2 B 0.7892(8) 1.1804(8) 0.5393(7) 0.0475(8) Uani 1 1 d . . . . .
O58 O 0.1863(3) 0.3997(3) 0.2216(3) 0.0252(8) Uani 1 1 d . . . . .
O59 O 0.4024(5) 0.3410(6) 0.2468(5) 0.0715(14) Uani 1 1 d . . . . .
O60 O 0.4022(3) 0.2605(3) 0.4550(3) 0.0268(6) Uani 1 1 d . . . . .
O61 O 0.2655(3) 0.3720(3) 0.3074(3) 0.0252(8) Uani 1 1 d . . . . .
O62 O 0.903080 0.646920 0.244629 0.0535(5) Uani 1 1 d . . . . .
O63 O 0.2910(4) 0.8023(4) 0.5933(4) 0.0386(6) Uani 1 1 d . . . . .
O64 O 0.7246(5) 0.6183(5) 0.4064(5) 0.0611(10) Uani 1 1 d . . . . .
O65 O 0.7537(5) 1.0160(4) 0.3448(5) 0.0535(5) Uani 1 1 d . . . . .
O66 O 0.7763(4) 0.6202(4) 0.2959(4) 0.0415(9) Uani 1 1 d . . . . .
O67 O 0.3855(3) 0.8253(3) 0.1177(3) 0.0258(6) Uani 1 1 d . . . . .
O68 O 0.4100(4) 0.7413(4) 0.4137(4) 0.0374(11) Uani 1 1 d . . . . .
O69 O 0.9481(4) 0.6357(4) 0.4749(5) 0.0535(5) Uani 1 1 d . . . . .
O70 O 0.1979(3) 0.9242(3) 0.2093(3) 0.0258(9) Uani 1 1 d . . . . .
O71 O 0.4123(4) 0.5658(3) 0.2622(4) 0.0337(8) Uiso 1 1 d . . . . .
O72 O 0.3339(3) 0.3615(3) 0.4321(3) 0.0268(6) Uani 1 1 d . . . . .
O73 O 0.6561(4) 1.0792(4) 0.3206(5) 0.0535(5) Uani 1 1 d . . . . .
O74 O 0.9756(5) 1.1188(6) 0.3707(6) 0.0804(11) Uani 1 1 d . . . . .
B3 B 0.4883(7) 0.3936(7) 0.4321(7) 0.0408(9) Uani 1 1 d . . . . .
O75 O 1.027620 0.625851 0.252870 0.0535(5) Uani 1 1 d . . . . .
O76 O 0.6729(4) 0.9406(4) 0.4181(4) 0.0386(6) Uani 1 1 d . . . . .
O77 O 0.890090 1.343590 0.387850 0.145(6) Uiso 1 1 d . . . . .
O78 O 0.811450 1.427731 0.332029 0.112(3) Uiso 1 1 d . . . . .
B4 B 0.3598(7) 0.6108(6) 0.2988(6) 0.034(3) Uiso 1 1 d . . . . .
O79 O 0.992390 0.667701 0.155530 0.0512(12) Uani 1 1 d . . . . .
O80 O 0.8449(5) 0.6572(5) 0.4068(5) 0.0611(10) Uani 1 1 d . . . . .
B5 B 0.3568(5) 0.7235(5) 0.2481(5) 0.018(2) Uiso 1 1 d . . . . .
O81 O 0.8338(5) 1.1399(4) 0.4294(4) 0.0475(8) Uani 1 1 d . . . . .
O82 O 0.3165(4) 0.9552(3) 0.4475(4) 0.0374(11) Uani 1 1 d . . . . .
O83 O 0.2671(3) 0.3074(3) 0.6097(3) 0.0268(6) Uani 1 1 d . . . . .
O84 O 0.2531(3) 0.4826(3) 0.3536(3) 0.0247(15) Uani 1 1 d . . . . .
B6 B 0.3026(7) 0.5123(7) 0.3326(7) 0.0386(6) Uani 1 1 d . . . . .
B7 B 0.4971(7) 0.8611(7) 0.4273(7) 0.0386(6) Uani 1 1 d . . . . .
O85 O 0.7744(5) 0.6398(5) 0.4998(5) 0.0611(10) Uani 1 1 d . . . . .
O86 O 1.1685(5) 1.0593(6) 0.4155(5) 0.0804(11) Uani 1 1 d . . . . .
B8 B 0.2302(6) 0.9084(5) 0.3392(6) 0.0258(9) Uani 1 1 d . . . . .
B9 B 0.3604(7) 0.8332(6) 0.1811(6) 0.034(3) Uiso 1 1 d . . . . .
B10 B 0.5972(7) 0.4320(7) 0.4063(7) 0.0408(9) Uani 1 1 d . . . . .
B11 B 0.6070(7) 0.9175(7) 0.3976(7) 0.0386(6) Uani 1 1 d . . . . .
B12 B 0.3930(7) 0.7135(6) 0.3644(6) 0.0337(8) Uiso 1 1 d . . . . .
B13 B 0.2915(6) 0.3236(5) 0.5477(6) 0.0268(6) Uani 1 1 d . . . . .
B14 B 0.7243(8) 1.0946(7) 0.3473(9) 0.0535(5) Uani 1 1 d . . . . .
O87 O 0.8738(5) 0.5298(4) 0.3304(5) 0.0535(5) Uani 1 1 d . . . . .
O88 O 0.867371 1.242790 0.329230 0.122(6) Uani 1 1 d . . . . .
O89 O 0.7565(4) 0.5148(4) 0.3531(4) 0.0415(9) Uani 1 1 d . . . . .
O90 O 0.3789(3) 0.9739(3) 0.3342(3) 0.0258(6) Uani 1 1 d . . . . .
O91 O 1.0209(5) 1.1337(6) 0.2624(5) 0.0804(11) Uani 1 1 d . . . . .
B15 B 0.8105(8) 0.4910(7) 0.3476(9) 0.0535(5) Uani 1 1 d . . . . .
B16 B 0.9943(10) 1.1373(12) 0.4300(10) 0.0804(11) Uani 1 1 d . . . . .
O92 O 1.1590(5) 0.5422(4) 0.4272(4) 0.0475(8) Uani 1 1 d . . . . .
O93 O 0.9751(5) 0.6201(4) 0.3592(5) 0.0535(5) Uani 1 1 d . . . . .
O94 O 0.902829 1.245121 0.440639 0.113(5) Uani 1 1 d . . . . .
B17 B 0.4757(6) 0.8545(5) 0.2081(6) 0.0258(6) Uani 1 1 d . . . . .
B18 B 0.6332(8) 1.0714(8) 0.2555(9) 0.0535(5) Uani 1 1 d . . . . .
B19 B 0.3482(7) 1.3106(6) 0.2085(7) 0.036(3) Uiso 1 1 d . . . . .
B20 B 0.4349(6) 1.0087(5) 0.3326(6) 0.025(2) Uiso 1 1 d . . . . .
O95 O 0.7967(5) 0.6216(4) 0.1742(4) 0.056(3) Uani 1 1 d . . . . .
B21 B 0.5150(7) 0.9133(6) 0.3134(7) 0.0374(11) Uani 1 1 d . . . . .
O96 O 0.4696(4) 0.3861(4) 0.3705(4) 0.0408(9) Uani 1 1 d . . . . .
B22 B 0.4210(12) 0.4987(12) 0.2817(12) 0.088(3) Uiso 1 1 d . . . . .
O97 O 0.7779(5) 1.1997(4) 0.6003(4) 0.0475(8) Uani 1 1 d . . . . .
B23 B 0.9920(8) 0.6105(7) 0.4302(9) 0.0535(5) Uani 1 1 d . . . . .
B24 B 1.0108(10) 1.0921(12) 0.3160(10) 0.0804(11) Uani 1 1 d . . . . .
B25 B 0.3477(7) 1.2167(6) 0.2971(7) 0.0412(8) Uani 1 1 d . . . . .
B26 B 0.1450(7) 0.9416(7) 0.2496(7) 0.0393(16) Uiso 1 1 d . . . . .
O98 O 0.3557(4) 1.1482(4) 0.3042(4) 0.0412(8) Uani 1 1 d . . . . .
O99 O 0.6541(4) 0.4667(4) 0.4284(4) 0.0408(9) Uani 1 1 d . . . . .
O100 O 0.5190(5) 0.3668(6) 0.2690(4) 0.0715(14) Uani 1 1 d . . . . .
B27 B 0.2162(5) 0.4112(6) 0.3470(6) 0.0252(8) Uani 1 1 d . . . . .
B28 B 0.3876(6) 0.3315(5) 0.4759(5) 0.0208(12) Uani 1 1 d . . . . .
O101 O 0.7861(4) 1.1626(4) 0.1997(5) 0.0535(5) Uani 1 1 d . . . . .
O102 O 0.808670 0.922509 0.350500 0.0535(5) Uani 1 1 d . . . . .
O103 O 0.9032(4) 0.7648(4) 0.4108(5) 0.0535(5) Uani 1 1 d . . . . .
O104 O 0.4272(6) 0.4519(6) 0.2285(6) 0.088(3) Uiso 1 1 d . . . . .
B29 B 0.6476(7) 0.5669(7) 0.2551(7) 0.0415(9) Uani 1 1 d . . . . .
B30 B 0.5134(7) 0.4206(7) 0.3266(7) 0.0408(9) Uani 1 1 d . . . . .
B31 B 0.1406(6) 0.4200(6) 0.2643(5) 0.0252(8) Uani 1 1 d . . . . .
O105 O 0.6955(4) 0.5816(4) 0.2158(4) 0.0415(9) Uani 1 1 d . . . . .
O106 O 0.2876(4) 1.3360(3) 0.1997(3) 0.0335(18) Uani 1 1 d . . . . .
B32 B 0.2443(5) 1.3686(5) 0.2439(5) 0.019(2) Uiso 1 1 d . . . . .
B33 B 0.3168(7) 1.0076(6) 0.3643(6) 0.035(3) Uiso 1 1 d . . . . .
O107 O 0.7760(5) 0.6880(5) 0.6100(5) 0.0611(10) Uani 1 1 d . . . . .
O108 O 0.879060 0.682220 0.126081 0.0535(5) Uani 1 1 d . . . . .
B34 B 0.3852(7) 0.8023(6) 0.4472(7) 0.0374(11) Uani 1 1 d . . . . .
O109 O 0.915090 0.935999 0.265301 0.047(2) Uani 1 1 d . . . . .
B35 B 1.0180(8) 0.5803(7) 0.3215(9) 0.0535(5) Uani 1 1 d . . . . .
B36 B 1.1083(10) 1.0728(12) 0.4002(10) 0.0804(11) Uani 1 1 d . . . . .
O110 O 0.835730 0.732260 0.200500 0.0535(5) Uani 1 1 d . . . . .
O111 O 0.871230 0.710350 0.510180 0.0611(10) Uani 1 1 d . . . . .
B37 B 0.890470 0.702009 0.445210 0.0611(10) Uani 1 1 d . . . . .
B38 B 0.897221 0.789120 0.351610 0.0535(5) Uani 1 1 d . . . . .
B39 B 0.7488(8) 1.1337(7) 0.2389(9) 0.0535(5) Uani 1 1 d . . . . .
B40 B 0.850650 0.672180 0.187690 0.0535(5) Uani 1 1 d . . . . .
B41 B 0.9389(8) 0.6807(7) 0.1129(9) 0.0535(5) Uani 1 1 d . . . . .
B42 B 0.7231(7) 0.5839(7) 0.3426(7) 0.0415(9) Uani 1 1 d . . . . .
B43 B 0.4504(7) 0.8171(6) 0.1052(7) 0.0412(8) Uani 1 1 d . . . . .
B44 B 0.3834(6) 0.2245(5) 0.3998(6) 0.0268(6) Uani 1 1 d . . . . .
B45 B 0.855901 0.881090 0.297720 0.0415(9) Uani 1 1 d . . . . .
B46 B 0.2599(6) 0.8887(5) 0.2306(6) 0.0258(6) Uani 1 1 d . . . . .
B47 B 0.2946(7) 0.8815(6) 0.4431(7) 0.0374(11) Uani 1 1 d . . . . .
B48 B 1.0999(8) 0.5753(8) 0.4021(7) 0.0475(8) Uani 1 1 d . . . . .
O112 O 0.4884(5) 0.3048(6) 0.1797(4) 0.0715(14) Uani 1 1 d . . . . .
O113 O 0.4679(5) 0.2654(6) 0.0794(4) 0.0715(14) Uani 1 1 d . . . . .
B49 B 0.4427(9) 0.2798(11) 0.1401(8) 0.0715(14) Uani 1 1 d . . . . .
B50 B 0.887130 1.276320 0.384800 0.105(10) Uani 1 1 d . . . . .
O114 O 0.8742(4) 0.7404(4) 0.3109(5) 0.0535(5) Uani 1 1 d . . . . .
O115 O 0.855620 1.355659 0.297009 0.112(3) Uiso 1 1 d . . . . .
O116 O 0.939468 1.425419 0.339980 0.112(3) Uiso 1 1 d . . . . .
B51 B 0.798970 0.674930 0.552370 0.0611(10) Uani 1 1 d . . . . .
B52 B 0.3741(7) 1.1128(7) 0.3627(7) 0.0386(6) Uani 1 1 d . . . . .
B53 B 0.4757(9) 0.3456(11) 0.2330(8) 0.0715(14) Uani 1 1 d . . . . .
B54 B 0.9210(7) 1.0024(7) 0.2816(7) 0.0415(9) Uani 1 1 d . . . . .
B55 B 0.981270 0.646440 0.222850 0.0535(5) Uani 1 1 d . . . . .
O117 O 0.844820 0.838630 0.251670 0.0535(5) Uani 1 1 d . . . . .
B56 B 0.840810 0.761861 0.245740 0.0535(5) Uani 1 1 d . . . . .
B57 B 0.874160 1.391050 0.352790 0.112(3) Uiso 1 1 d . . . . .
B58 B 0.7761(9) 1.1334(8) 0.4422(7) 0.0475(8) Uani 1 1 d . . . . .
O118 O 0.9968(5) 1.1845(6) 0.1731(5) 0.0804(11) Uani 1 1 d . . . . .
B59 B 0.9668(10) 1.1620(12) 0.2208(10) 0.0804(11) Uani 1 1 d . . . . .
B60 B 0.8038(8) 0.9873(7) 0.3437(9) 0.0535(5) Uani 1 1 d . . . . .
O119 O 0.884500 1.220501 0.152500 0.0804(11) Uani 1 1 d . . . . .
O120 O 0.838921 1.259548 0.246129 0.104(5) Uani 1 1 d . . . . .
B61 B 0.9420(10) 1.2263(12) 0.1406(10) 0.0804(11) Uani 1 1 d . . . . .
B62 B 0.844609 1.281040 0.296889 0.102(9) Uani 1 1 d . . . . .
B63 B 0.2644(6) 0.3664(6) 0.4380(6) 0.0288(11) Uani 1 1 d . . . . .
B64 B 0.846310 1.205130 0.201740 0.0804(11) Uani 1 1 d . . . . .
O121 O 0.895090 0.849150 0.377130 0.0535(5) Uani 1 1 d . . . . .
B65 B 0.7775(9) 0.6238(8) 0.4441(9) 0.0611(10) Uani 1 1 d . . . . .
B66 B 0.9358(8) 0.4949(7) 0.3255(9) 0.0535(5) Uani 1 1 d . . . . .
B67 B 0.8852(8) 1.1698(7) 0.4728(7) 0.0475(8) Uani 1 1 d . . . . .
O122 O 0.9766(5) 1.2186(6) 0.0674(5) 0.0804(11) Uani 1 1 d . . . . .
B68 B 0.7545(7) 0.6069(7) 0.2283(7) 0.0415(9) Uani 1 1 d . . . . .
loop_
_atom_site_aniso_label
_atom_site_aniso_U_11
_atom_site_aniso_U_22
_atom_site_aniso_U_33
_atom_site_aniso_U_23
_atom_site_aniso_U_13
_atom_site_aniso_U_12
Mg1 0.047(2) 0.0260(18) 0.0242(19) -0.0182(15) -0.0117(16) 0.0122(15)
Mg2 0.036(2) 0.037(2) 0.067(3) 0.032(2) 0.001(2) -0.0232(17)
Mg3 0.0278(13) 0.0227(12) 0.0301(14) -0.0061(10) 0.0092(10) 0.0123(9)
Mg4 0.050(2) 0.0179(16) 0.085(3) 0.0082(18) -0.029(2) -0.0093(15)
O1 0.0336(13) 0.0411(12) 0.0413(14) 0.0089(10) 0.0027(10) 0.0008(9)
O2 0.0425(17) 0.0277(14) 0.053(2) -0.0091(13) 0.0008(14) 0.0027(12)
O3 0.0234(13) 0.0226(12) 0.0311(15) 0.0013(10) -0.0044(11) -0.0017(9)
O5 0.0436(10) 0.0409(9) 0.0757(14) -0.0004(9) -0.0047(9) -0.0034(7)
O123 0.0278(13) 0.0227(12) 0.0301(14) -0.0061(10) 0.0092(10) 0.0123(9)
O7 0.0234(13) 0.0226(12) 0.0311(15) 0.0013(10) -0.0044(11) -0.0017(9)
O8 0.0336(13) 0.0411(12) 0.0413(14) 0.0089(10) 0.0027(10) 0.0008(9)
O9 0.063(2) 0.0517(18) 0.0278(16) -0.0193(13) -0.0020(14) 0.0113(14)
O10 0.0525(19) 0.121(3) 0.068(2) 0.034(2) 0.0004(16) -0.0148(18)
O11 0.027(3) 0.013(3) 0.023(3) -0.008(2) 0.000(2) 0.006(2)
O4 0.0436(10) 0.0409(9) 0.0757(14) -0.0004(9) -0.0047(9) -0.0034(7)
O14 0.0225(17) 0.052(2) 0.048(2) -0.0046(18) -0.0006(15) 0.0026(15)
O15 0.063(2) 0.0517(18) 0.0278(16) -0.0193(13) -0.0020(14) 0.0113(14)
O16 0.0425(17) 0.0277(14) 0.053(2) -0.0091(13) 0.0008(14) 0.0027(12)
O17 0.0425(17) 0.0277(14) 0.053(2) -0.0091(13) 0.0008(14) 0.0027(12)
O18 0.0425(17) 0.0277(14) 0.053(2) -0.0091(13) 0.0008(14) 0.0027(12)
O19 0.0336(13) 0.0411(12) 0.0413(14) 0.0089(10) 0.0027(10) 0.0008(9)
O20 0.0436(10) 0.0409(9) 0.0757(14) -0.0004(9) -0.0047(9) -0.0034(7)
O21 0.0436(10) 0.0409(9) 0.0757(14) -0.0004(9) -0.0047(9) -0.0034(7)
O22 0.047(4) 0.032(3) 0.107(6) -0.033(3) 0.019(4) -0.017(3)
O23 0.0336(13) 0.0411(12) 0.0413(14) 0.0089(10) 0.0027(10) 0.0008(9)
O26 0.030(2) 0.0207(18) 0.027(2) -0.0019(16) 0.0016(17) 0.0121(15)
O27 0.0225(17) 0.052(2) 0.048(2) -0.0046(18) -0.0006(15) 0.0026(15)
O28 0.052(2) 0.125(4) 0.039(2) -0.038(2) 0.0297(19) -0.035(2)
O29 0.0336(13) 0.0411(12) 0.0413(14) 0.0089(10) 0.0027(10) 0.0008(9)
O30 0.030(3) 0.030(2) 0.026(3) 0.0062(19) -0.003(2) -0.0076(19)
O31 0.0134(15) 0.0411(18) 0.0209(17) 0.0074(14) -0.0065(12) 0.0041(13)
O32 0.0436(10) 0.0409(9) 0.0757(14) -0.0004(9) -0.0047(9) -0.0034(7)
O34 0.0234(13) 0.0226(12) 0.0311(15) 0.0013(10) -0.0044(11) -0.0017(9)
O35 0.0336(13) 0.0411(12) 0.0413(14) 0.0089(10) 0.0027(10) 0.0008(9)
O36 0.0293(17) 0.052(2) 0.043(2) 0.0246(16) -0.0184(15) -0.0190(14)
O37 0.0134(15) 0.0411(18) 0.0209(17) 0.0074(14) -0.0065(12) 0.0041(13)
O38 0.0234(13) 0.0226(12) 0.0311(15) 0.0013(10) -0.0044(11) -0.0017(9)
O39 0.0336(13) 0.0411(12) 0.0413(14) 0.0089(10) 0.0027(10) 0.0008(9)
O40 0.0525(19) 0.121(3) 0.068(2) 0.034(2) 0.0004(16) -0.0148(18)
O41 0.0425(17) 0.0277(14) 0.053(2) -0.0091(13) 0.0008(14) 0.0027(12)
O42 0.063(2) 0.0517(18) 0.0278(16) -0.0193(13) -0.0020(14) 0.0113(14)
O43 0.0336(13) 0.0411(12) 0.0413(14) 0.0089(10) 0.0027(10) 0.0008(9)
O44 0.0525(19) 0.121(3) 0.068(2) 0.034(2) 0.0004(16) -0.0148(18)
O45 0.0436(10) 0.0409(9) 0.0757(14) -0.0004(9) -0.0047(9) -0.0034(7)
O46 0.063(2) 0.0517(18) 0.0278(16) -0.0193(13) -0.0020(14) 0.0113(14)
O47 0.048(2) 0.060(2) 0.074(3) -0.0320(19) -0.0173(19) -0.0075(16)
O48 0.0425(17) 0.0277(14) 0.053(2) -0.0091(13) 0.0008(14) 0.0027(12)
O49 0.030(2) 0.0207(18) 0.027(2) -0.0019(16) 0.0016(17) 0.0121(15)
O50 0.0336(13) 0.0411(12) 0.0413(14) 0.0089(10) 0.0027(10) 0.0008(9)
O51 0.102(8) 0.023(4) 0.093(8) -0.024(4) 0.077(7) -0.021(4)
O52 0.030(3) 0.030(2) 0.026(3) 0.0062(19) -0.003(2) -0.0076(19)
B1 0.0336(13) 0.0411(12) 0.0413(14) 0.0089(10) 0.0027(10) 0.0008(9)
O53 0.0436(10) 0.0409(9) 0.0757(14) -0.0004(9) -0.0047(9) -0.0034(7)
O54 0.0234(13) 0.0226(12) 0.0311(15) 0.0013(10) -0.0044(11) -0.0017(9)
O55 0.047(4) 0.032(3) 0.107(6) -0.033(3) 0.019(4) -0.017(3)
O56 0.035(4) 0.044(4) 0.036(5) 0.006(4) 0.014(3) 0.001(3)
O57 0.0525(19) 0.121(3) 0.068(2) 0.034(2) 0.0004(16) -0.0148(18)
B2 0.063(2) 0.0517(18) 0.0278(16) -0.0193(13) -0.0020(14) 0.0113(14)
O58 0.0134(15) 0.0411(18) 0.0209(17) 0.0074(14) -0.0065(12) 0.0041(13)
O59 0.052(2) 0.125(4) 0.039(2) -0.038(2) 0.0297(19) -0.035(2)
O60 0.0278(13) 0.0227(12) 0.0301(14) -0.0061(10) 0.0092(10) 0.0123(9)
O61 0.0134(15) 0.0411(18) 0.0209(17) 0.0074(14) -0.0065(12) 0.0041(13)
O62 0.0436(10) 0.0409(9) 0.0757(14) -0.0004(9) -0.0047(9) -0.0034(7)
O63 0.0336(13) 0.0411(12) 0.0413(14) 0.0089(10) 0.0027(10) 0.0008(9)
O64 0.048(2) 0.060(2) 0.074(3) -0.0320(19) -0.0173(19) -0.0075(16)
O65 0.0436(10) 0.0409(9) 0.0757(14) -0.0004(9) -0.0047(9) -0.0034(7)
O66 0.0293(17) 0.052(2) 0.043(2) 0.0246(16) -0.0184(15) -0.0190(14)
O67 0.0234(13) 0.0226(12) 0.0311(15) 0.0013(10) -0.0044(11) -0.0017(9)
O68 0.042(3) 0.032(2) 0.038(3) 0.0029(19) -0.013(2) -0.0115(19)
O69 0.0436(10) 0.0409(9) 0.0757(14) -0.0004(9) -0.0047(9) -0.0034(7)
O70 0.030(2) 0.0207(18) 0.027(2) -0.0019(16) 0.0016(17) 0.0121(15)
O72 0.0278(13) 0.0227(12) 0.0301(14) -0.0061(10) 0.0092(10) 0.0123(9)
O73 0.0436(10) 0.0409(9) 0.0757(14) -0.0004(9) -0.0047(9) -0.0034(7)
O74 0.0525(19) 0.121(3) 0.068(2) 0.034(2) 0.0004(16) -0.0148(18)
B3 0.0225(17) 0.052(2) 0.048(2) -0.0046(18) -0.0006(15) 0.0026(15)
O75 0.0436(10) 0.0409(9) 0.0757(14) -0.0004(9) -0.0047(9) -0.0034(7)
O76 0.0336(13) 0.0411(12) 0.0413(14) 0.0089(10) 0.0027(10) 0.0008(9)
O79 0.050(2) 0.0179(16) 0.085(3) 0.0082(18) -0.029(2) -0.0093(15)
O80 0.048(2) 0.060(2) 0.074(3) -0.0320(19) -0.0173(19) -0.0075(16)
O81 0.063(2) 0.0517(18) 0.0278(16) -0.0193(13) -0.0020(14) 0.0113(14)
O82 0.042(3) 0.032(2) 0.038(3) 0.0029(19) -0.013(2) -0.0115(19)
O83 0.0278(13) 0.0227(12) 0.0301(14) -0.0061(10) 0.0092(10) 0.0123(9)
O84 0.018(3) 0.022(3) 0.035(4) -0.001(3) 0.008(3) -0.001(3)
B6 0.0336(13) 0.0411(12) 0.0413(14) 0.0089(10) 0.0027(10) 0.0008(9)
B7 0.0336(13) 0.0411(12) 0.0413(14) 0.0089(10) 0.0027(10) 0.0008(9)
O85 0.048(2) 0.060(2) 0.074(3) -0.0320(19) -0.0173(19) -0.0075(16)
O86 0.0525(19) 0.121(3) 0.068(2) 0.034(2) 0.0004(16) -0.0148(18)
B8 0.030(2) 0.0207(18) 0.027(2) -0.0019(16) 0.0016(17) 0.0121(15)
B10 0.0225(17) 0.052(2) 0.048(2) -0.0046(18) -0.0006(15) 0.0026(15)
B11 0.0336(13) 0.0411(12) 0.0413(14) 0.0089(10) 0.0027(10) 0.0008(9)
B13 0.0278(13) 0.0227(12) 0.0301(14) -0.0061(10) 0.0092(10) 0.0123(9)
B14 0.0436(10) 0.0409(9) 0.0757(14) -0.0004(9) -0.0047(9) -0.0034(7)
O87 0.0436(10) 0.0409(9) 0.0757(14) -0.0004(9) -0.0047(9) -0.0034(7)
O88 0.075(9) 0.064(8) 0.23(2) -0.005(10) -0.027(11) 0.002(6)
O89 0.0293(17) 0.052(2) 0.043(2) 0.0246(16) -0.0184(15) -0.0190(14)
O90 0.0234(13) 0.0226(12) 0.0311(15) 0.0013(10) -0.0044(11) -0.0017(9)
O91 0.0525(19) 0.121(3) 0.068(2) 0.034(2) 0.0004(16) -0.0148(18)
B15 0.0436(10) 0.0409(9) 0.0757(14) -0.0004(9) -0.0047(9) -0.0034(7)
B16 0.0525(19) 0.121(3) 0.068(2) 0.034(2) 0.0004(16) -0.0148(18)
O92 0.063(2) 0.0517(18) 0.0278(16) -0.0193(13) -0.0020(14) 0.0113(14)
O93 0.0436(10) 0.0409(9) 0.0757(14) -0.0004(9) -0.0047(9) -0.0034(7)
O94 0.095(10) 0.089(10) 0.153(15) -0.037(9) -0.045(10) 0.010(8)
B17 0.0234(13) 0.0226(12) 0.0311(15) 0.0013(10) -0.0044(11) -0.0017(9)
B18 0.0436(10) 0.0409(9) 0.0757(14) -0.0004(9) -0.0047(9) -0.0034(7)
O95 0.082(7) 0.032(4) 0.055(6) 0.025(4) 0.000(5) 0.020(4)
B21 0.042(3) 0.032(2) 0.038(3) 0.0029(19) -0.013(2) -0.0115(19)
O96 0.0225(17) 0.052(2) 0.048(2) -0.0046(18) -0.0006(15) 0.0026(15)
O97 0.063(2) 0.0517(18) 0.0278(16) -0.0193(13) -0.0020(14) 0.0113(14)
B23 0.0436(10) 0.0409(9) 0.0757(14) -0.0004(9) -0.0047(9) -0.0034(7)
B24 0.0525(19) 0.121(3) 0.068(2) 0.034(2) 0.0004(16) -0.0148(18)
B25 0.0425(17) 0.0277(14) 0.053(2) -0.0091(13) 0.0008(14) 0.0027(12)
O98 0.0425(17) 0.0277(14) 0.053(2) -0.0091(13) 0.0008(14) 0.0027(12)
O99 0.0225(17) 0.052(2) 0.048(2) -0.0046(18) -0.0006(15) 0.0026(15)
O100 0.052(2) 0.125(4) 0.039(2) -0.038(2) 0.0297(19) -0.035(2)
B27 0.0134(15) 0.0411(18) 0.0209(17) 0.0074(14) -0.0065(12) 0.0041(13)
B28 0.027(3) 0.013(3) 0.023(3) -0.008(2) 0.000(2) 0.006(2)
O101 0.0436(10) 0.0409(9) 0.0757(14) -0.0004(9) -0.0047(9) -0.0034(7)
O102 0.0436(10) 0.0409(9) 0.0757(14) -0.0004(9) -0.0047(9) -0.0034(7)
O103 0.0436(10) 0.0409(9) 0.0757(14) -0.0004(9) -0.0047(9) -0.0034(7)
B29 0.0293(17) 0.052(2) 0.043(2) 0.0246(16) -0.0184(15) -0.0190(14)
B30 0.0225(17) 0.052(2) 0.048(2) -0.0046(18) -0.0006(15) 0.0026(15)
B31 0.0134(15) 0.0411(18) 0.0209(17) 0.0074(14) -0.0065(12) 0.0041(13)
O105 0.0293(17) 0.052(2) 0.043(2) 0.0246(16) -0.0184(15) -0.0190(14)
O106 0.069(5) 0.024(4) 0.008(3) -0.003(3) -0.001(3) 0.028(3)
O107 0.048(2) 0.060(2) 0.074(3) -0.0320(19) -0.0173(19) -0.0075(16)
O108 0.0436(10) 0.0409(9) 0.0757(14) -0.0004(9) -0.0047(9) -0.0034(7)
B34 0.042(3) 0.032(2) 0.038(3) 0.0029(19) -0.013(2) -0.0115(19)
O109 0.043(5) 0.039(4) 0.059(6) 0.003(4) -0.005(4) 0.006(4)
B35 0.0436(10) 0.0409(9) 0.0757(14) -0.0004(9) -0.0047(9) -0.0034(7)
B36 0.0525(19) 0.121(3) 0.068(2) 0.034(2) 0.0004(16) -0.0148(18)
O110 0.0436(10) 0.0409(9) 0.0757(14) -0.0004(9) -0.0047(9) -0.0034(7)
O111 0.048(2) 0.060(2) 0.074(3) -0.0320(19) -0.0173(19) -0.0075(16)
B37 0.048(2) 0.060(2) 0.074(3) -0.0320(19) -0.0173(19) -0.0075(16)
B38 0.0436(10) 0.0409(9) 0.0757(14) -0.0004(9) -0.0047(9) -0.0034(7)
B39 0.0436(10) 0.0409(9) 0.0757(14) -0.0004(9) -0.0047(9) -0.0034(7)
B40 0.0436(10) 0.0409(9) 0.0757(14) -0.0004(9) -0.0047(9) -0.0034(7)
B41 0.0436(10) 0.0409(9) 0.0757(14) -0.0004(9) -0.0047(9) -0.0034(7)
B42 0.0293(17) 0.052(2) 0.043(2) 0.0246(16) -0.0184(15) -0.0190(14)
B43 0.0425(17) 0.0277(14) 0.053(2) -0.0091(13) 0.0008(14) 0.0027(12)
B44 0.0278(13) 0.0227(12) 0.0301(14) -0.0061(10) 0.0092(10) 0.0123(9)
B45 0.0293(17) 0.052(2) 0.043(2) 0.0246(16) -0.0184(15) -0.0190(14)
B46 0.0234(13) 0.0226(12) 0.0311(15) 0.0013(10) -0.0044(11) -0.0017(9)
B47 0.042(3) 0.032(2) 0.038(3) 0.0029(19) -0.013(2) -0.0115(19)
B48 0.063(2) 0.0517(18) 0.0278(16) -0.0193(13) -0.0020(14) 0.0113(14)
O112 0.052(2) 0.125(4) 0.039(2) -0.038(2) 0.0297(19) -0.035(2)
O113 0.052(2) 0.125(4) 0.039(2) -0.038(2) 0.0297(19) -0.035(2)
B49 0.052(2) 0.125(4) 0.039(2) -0.038(2) 0.0297(19) -0.035(2)
B50 0.083(16) 0.054(12) 0.18(3) -0.037(15) 0.026(18) -0.011(11)
O114 0.0436(10) 0.0409(9) 0.0757(14) -0.0004(9) -0.0047(9) -0.0034(7)
B51 0.048(2) 0.060(2) 0.074(3) -0.0320(19) -0.0173(19) -0.0075(16)
B52 0.0336(13) 0.0411(12) 0.0413(14) 0.0089(10) 0.0027(10) 0.0008(9)
B53 0.052(2) 0.125(4) 0.039(2) -0.038(2) 0.0297(19) -0.035(2)
B54 0.0293(17) 0.052(2) 0.043(2) 0.0246(16) -0.0184(15) -0.0190(14)
B55 0.0436(10) 0.0409(9) 0.0757(14) -0.0004(9) -0.0047(9) -0.0034(7)
O117 0.0436(10) 0.0409(9) 0.0757(14) -0.0004(9) -0.0047(9) -0.0034(7)
B56 0.0436(10) 0.0409(9) 0.0757(14) -0.0004(9) -0.0047(9) -0.0034(7)
B58 0.063(2) 0.0517(18) 0.0278(16) -0.0193(13) -0.0020(14) 0.0113(14)
O118 0.0525(19) 0.121(3) 0.068(2) 0.034(2) 0.0004(16) -0.0148(18)
B59 0.0525(19) 0.121(3) 0.068(2) 0.034(2) 0.0004(16) -0.0148(18)
B60 0.0436(10) 0.0409(9) 0.0757(14) -0.0004(9) -0.0047(9) -0.0034(7)
O119 0.0525(19) 0.121(3) 0.068(2) 0.034(2) 0.0004(16) -0.0148(18)
O120 0.102(10) 0.104(10) 0.107(11) 0.014(8) 0.024(9) 0.041(8)
B61 0.0525(19) 0.121(3) 0.068(2) 0.034(2) 0.0004(16) -0.0148(18)
B62 0.11(2) 0.056(13) 0.14(2) -0.036(14) -0.012(18) 0.036(12)
B63 0.030(3) 0.030(2) 0.026(3) 0.0062(19) -0.003(2) -0.0076(19)
B64 0.0525(19) 0.121(3) 0.068(2) 0.034(2) 0.0004(16) -0.0148(18)
O121 0.0436(10) 0.0409(9) 0.0757(14) -0.0004(9) -0.0047(9) -0.0034(7)
B65 0.048(2) 0.060(2) 0.074(3) -0.0320(19) -0.0173(19) -0.0075(16)
B66 0.0436(10) 0.0409(9) 0.0757(14) -0.0004(9) -0.0047(9) -0.0034(7)
B67 0.063(2) 0.0517(18) 0.0278(16) -0.0193(13) -0.0020(14) 0.0113(14)
O122 0.0525(19) 0.121(3) 0.068(2) 0.034(2) 0.0004(16) -0.0148(18)
B68 0.0293(17) 0.052(2) 0.043(2) 0.0246(16) -0.0184(15) -0.0190(14)
loop_
_atom_type_symbol
_atom_type_description
_atom_type_scat_dispersion_real
_atom_type_scat_dispersion_imag
_atom_type_scat_source
B B 0.0013 0.0007 'International Tables Vol C Tables 4.2.6.8 and 6.1.1.4'
Mg Mg 0.0486 0.0363 'International Tables Vol C Tables 4.2.6.8 and 6.1.1.4'
O O 0.0106 0.0060 'International Tables Vol C Tables 4.2.6.8 and 6.1.1.4'
loop_
_geom_angle_atom_site_label_1
_geom_angle_atom_site_label_2
_geom_angle_atom_site_label_3
_geom_angle
_geom_angle_site_symmetry_1
_geom_angle_site_symmetry_3
_geom_angle_publ_flag
O3 Mg1 O25 80.5(3) . . ?
O3 Mg1 O39 91.4(3) . . ?
O3 Mg1 O90 98.0(3) . . ?
O3 Mg1 B21 69.5(3) . . ?
O25 Mg1 O39 96.2(3) . . ?
O25 Mg1 O90 178.5(4) . . ?
O25 Mg1 B21 109.1(4) . . ?
O26 Mg1 O3 88.0(3) . . ?
O26 Mg1 O25 94.9(3) . . ?
O26 Mg1 O39 168.7(3) . . ?
O26 Mg1 O90 85.5(3) . . ?
O26 Mg1 B21 143.0(4) . . ?
O29 Mg1 O3 164.6(3) . . ?
O29 Mg1 O25 84.2(3) . . ?
O29 Mg1 O26 94.8(3) . . ?
O29 Mg1 O39 88.7(3) . . ?
O29 Mg1 O90 97.2(3) . . ?
O29 Mg1 B21 114.8(4) . . ?
O39 Mg1 B21 28.5(3) . . ?
O90 Mg1 O39 83.4(3) . . ?
O90 Mg1 B21 69.9(3) . . ?
B7 O1 B34 129.7(12) . . ?
O44 Mg2 B24 65.9(5) . . ?
O45 Mg2 O44 90.0(4) . . ?
O45 Mg2 O51 86.1(4) . . ?
O45 Mg2 O74 168.6(4) . . ?
O45 Mg2 O81 90.1(4) . . ?
O45 Mg2 O88 91.2(3) . . ?
O45 Mg2 B24 146.3(6) . . ?
O51 Mg2 O44 90.2(5) . . ?
O51 Mg2 O74 82.9(5) . . ?
O51 Mg2 O81 97.7(4) . . ?
O51 Mg2 O88 173.0(4) . . ?
O51 Mg2 B24 71.6(6) . . ?
O74 Mg2 O44 92.6(4) . . ?
O74 Mg2 B24 29.6(5) . . ?
O81 Mg2 O44 172.1(4) . . ?
O81 Mg2 O74 88.9(4) . . ?
O81 Mg2 B24 117.1(5) . . ?
O88 Mg2 O44 83.4(3) . . ?
O88 Mg2 O74 100.1(4) . . ?
O88 Mg2 O81 88.7(3) . . ?
O88 Mg2 B24 108.0(5) . . ?
B9 O3 Mg1 114.8(7) . . ?
B17 O3 Mg1 125.6(7) . . ?
B17 O3 B9 112.0(9) . . ?
O23 Mg3 O48 168.1(4) . 1_545 ?
O23 Mg3 O59 90.5(4) . . ?
O23 Mg3 O96 84.8(3) . . ?
O48 Mg3 O59 78.6(4) 1_545 . ?
O61 Mg3 O23 80.8(3) . . ?
O61 Mg3 O48 94.7(3) . 1_545 ?
O61 Mg3 O59 91.2(4) . . ?
O61 Mg3 O96 165.5(3) . . ?
O72 Mg3 O23 104.9(3) . . ?
O72 Mg3 O48 86.0(3) . 1_545 ?
O72 Mg3 O59 164.5(4) . . ?
O72 Mg3 O61 90.2(3) . . ?
O72 Mg3 O96 91.7(3) . . ?
O96 Mg3 O48 99.8(3) . 1_545 ?
O96 Mg3 O59 90.8(4) . . ?
B12 O6 B4 127.7(9) . . ?
B13 O123 B28 114.5(8) . . ?
B5 O7 B9 136.6(9) . . ?
B8 O8 B47 123.1(9) . . ?
B16 O9 B67 138.3(15) . . ?
B36 O10 B16 128.8(14) . . ?
B3 O11 B28 132.0(9) . . ?
O62 Mg4 O66 90.7(3) . . ?
O62 Mg4 O87 99.6(4) . . ?
O62 Mg4 O93 90.1(3) . . ?
O62 Mg4 B37 135.17(17) . . ?
O62 Mg4 O114 72.5(3) . . ?
O66 Mg4 O87 83.7(4) . . ?
O66 Mg4 O93 165.4(4) . . ?
O66 Mg4 B37 117.1(3) . . ?
O66 Mg4 O114 95.2(4) . . ?
O80 Mg4 O62 156.7(4) . . ?
O80 Mg4 O66 93.2(4) . . ?
O80 Mg4 O87 103.7(5) . . ?
O80 Mg4 O93 91.8(4) . . ?
O80 Mg4 B37 27.2(3) . . ?
O80 Mg4 O114 84.3(4) . . ?
O87 Mg4 O93 81.7(4) . . ?
O87 Mg4 B37 116.8(4) . . ?
O87 Mg4 O114 172.0(5) . . ?
O93 Mg4 B37 71.5(3) . . ?
O93 Mg4 O114 99.0(4) . . ?
O114 Mg4 B37 70.7(3) . . ?
B10 O14 B3 118.1(11) . . ?
B14 O15 B58 135.6(13) . . ?
B25 O16 B19 133.2(10) . . ?
B52 O17 B44 129.7(11) . 1_565 ?
B21 O18 B20 121.5(10) . . ?
B1 O19 B34 111.9(10) . . ?
B35 O20 B66 121.2(13) . . ?
B48 O21 B35 120.7(13) . . ?
B11 O22 B7 130.8(12) . . ?
B6 O23 Mg3 120.8(7) . . ?
B22 O23 Mg3 119.8(10) . . ?
B22 O23 B6 119.4(12) . . ?
B6 O24 B4 127.8(10) . . ?
B5 O25 Mg1 127.5(6) . . ?
B5 O25 B12 116.6(8) . . ?
B12 O25 Mg1 115.9(6) . . ?
B8 O26 Mg1 110.2(6) . . ?
B46 O26 Mg1 126.8(7) . . ?
B46 O26 B8 119.6(8) . . ?
B30 O27 B10 117.7(10) . . ?
B49 O28 B19 126.2(12) . 1_545 ?
B34 O29 Mg1 124.0(8) . . ?
B34 O29 B47 108.5(10) . . ?
B47 O29 Mg1 124.3(7) . . ?
B13 O30 B63 127.9(9) . . ?
B18 O32 B39 116.9(11) . . ?
B5 O33 B4 126.3(9) . . ?
B17 O34 B43 115.3(9) . . ?
B11 O35 B21 111.4(9) . . ?
B31 O37 B27 122.5(8) . . ?
B46 O38 B9 114.8(8) . . ?
B7 O39 Mg1 118.2(7) . . ?
B21 O39 Mg1 101.9(7) . . ?
B21 O39 B7 131.8(9) . . ?
B24 O40 B54 124.7(13) . . ?
B20 O41 B52 116.9(9) . . ?
B2 O42 B58 121.4(12) . . ?
B1 O43 B47 123.0(11) . . ?
B59 O44 Mg2 120.2(13) . . ?
B59 O44 B64 112.1(13) . . ?
B64 O44 Mg2 99.4(5) . . ?
B14 O45 Mg2 108.4(8) . . ?
B39 O45 Mg2 123.3(10) . . ?
B39 O45 B14 124.8(12) . . ?
B2 O46 B67 105.1(10) . . ?
B29 O47 B42 122.1(11) . . ?
B25 O48 Mg3 125.3(8) . 1_565 ?
B25 O48 B44 113.5(9) . 1_565 ?
B44 O48 Mg3 120.6(7) 1_565 1_565 ?
B26 O49 B8 124.0(9) . . ?
B22 O50 B30 140.6(13) . . ?
B54 O51 Mg2 114.3(7) . . ?
B54 O51 B60 124.0(10) . . ?
B60 O51 Mg2 117.5(7) . . ?
B63 O52 B27 131.4(10) . . ?
O19 B1 O63 113.3(10) . . ?
O43 B1 O19 125.7(12) . . ?
O43 B1 O63 120.9(11) . . ?
B48 O53 B23 125.0(13) . . ?
B17 O54 B21 120.1(8) . . ?
B33 O55 B52 129.3(11) . . ?
B33 O56 B8 124.9(8) . . ?
B36 O57 B24 118.1(13) . . ?
O42 B2 O46 121.8(12) . . ?
O42 B2 O97 130.5(15) . . ?
O97 B2 O46 102.5(11) . . ?
B31 O58 B32 117.1(8) . 1_545 ?
B19 O59 Mg3 111.7(7) 1_545 . ?
B19 O59 B53 127.8(10) 1_545 . ?
B53 O59 Mg3 119.6(8) . . ?
B44 O60 B28 132.0(8) . . ?
B27 O61 Mg3 117.0(6) . . ?
B32 O61 Mg3 125.2(6) 1_545 . ?
B32 O61 B27 112.5(7) 1_545 . ?
B40 O62 Mg4 121.87(14) . . ?
B55 O62 Mg4 125.96(14) . . ?
B55 O62 B40 111.609(5) . . ?
B65 O64 B42 126.3(12) . . ?
B60 O65 B14 140.5(12) . . ?
B42 O66 Mg4 117.2(6) . . ?
B68 O66 Mg4 126.1(8) . . ?
B68 O66 B42 109.5(8) . . ?
B43 O67 B9 123.1(10) . . ?
B12 O68 B34 133.8(10) . . ?
B23 O69 B37 113.9(9) . . ?
B26 O70 B46 122.8(9) . . ?
B22 O71 B4 118.0(12) . . ?
B28 O72 Mg3 111.8(5) . . ?
B63 O72 Mg3 114.5(7) . . ?
B63 O72 B28 130.3(8) . . ?
B18 O73 B14 130.6(12) . . ?
B16 O74 Mg2 121.9(12) . . ?
B16 O74 B24 135.9(15) . . ?
B24 O74 Mg2 102.0(10) . . ?
O11 B3 O14 115.8(11) . . ?
O11 B3 O96 120.9(11) . . ?
O96 B3 O14 122.0(12) . . ?
B55 O75 B35 123.3(5) . . ?
B57 O77 B50 136.187(2) . . ?
B15 O78 B57 114.6(7) 1_565 . ?
O6 B4 O33 104.5(8) . . ?
O6 B4 O71 108.4(9) . . ?
O24 B4 O6 117.8(10) . . ?
O24 B4 O33 115.8(10) . . ?
O24 B4 O71 111.2(9) . . ?
O33 B4 O71 96.8(8) . . ?
B41 O79 B55 123.4(7) . . ?
B37 O80 Mg4 118.4(6) . . ?
B37 O80 B65 116.0(8) . . ?
B65 O80 Mg4 125.0(7) . . ?
O7 B5 O25 112.0(8) . . ?
O33 B5 O7 123.4(9) . . ?
O33 B5 O25 123.6(9) . . ?
B58 O81 Mg2 122.9(9) . . ?
B58 O81 B67 122.9(11) . . ?
B67 O81 Mg2 112.4(8) . . ?
B6 O84 B27 138.9(9) . . ?
O24 B6 O23 117.5(10) . . ?
O84 B6 O23 116.1(10) . . ?
O84 B6 O24 125.9(12) . . ?
O1 B7 O22 128.9(15) . . ?
O1 B7 O39 126.5(13) . . ?
O22 B7 O39 101.4(10) . . ?
B65 O85 B51 151.6(12) . . ?
O8 B8 O26 116.7(9) . . ?
O8 B8 O49 114.5(10) . . ?
O8 B8 O56 116.2(10) . . ?
O26 B8 O56 101.4(7) . . ?
O49 B8 O26 111.2(8) . . ?
O49 B8 O56 94.0(7) . . ?
O3 B9 O38 109.9(9) . . ?
O7 B9 O3 111.8(10) . . ?
O7 B9 O38 110.5(9) . . ?
O7 B9 O67 104.0(9) . . ?
O67 B9 O3 115.1(9) . . ?
O67 B9 O38 105.2(9) . . ?
O14 B10 O27 121.6(11) . . ?
O14 B10 O99 114.4(12) . . ?
O27 B10 O99 123.6(12) . . ?
O22 B11 O76 123.6(12) . . ?
O35 B11 O22 123.4(12) . . ?
O35 B11 O76 113.0(11) . . ?
O6 B12 O25 112.3(10) . . ?
O68 B12 O6 127.8(12) . . ?
O68 B12 O25 118.6(10) . . ?
O123 B13 O83 117.2(9) . . ?
O30 B13 O123 121.4(10) . . ?
O30 B13 O83 119.4(9) . . ?
O15 B14 O45 117.8(13) . . ?
O15 B14 O65 112.4(13) . . ?
O15 B14 O73 116.2(14) . . ?
O45 B14 O65 102.3(11) . . ?
O73 B14 O45 109.3(13) . . ?
O73 B14 O65 95.8(9) . . ?
B15 O87 Mg4 120.7(8) . . ?
B66 O87 Mg4 120.3(8) . . ?
B66 O87 B15 118.3(10) . . ?
B50 O88 Mg2 115.96(13) . . ?
B62 O88 Mg2 135.68(13) . . ?
B62 O88 B50 107.132(3) . . ?
B15 O89 B42 137.0(11) . . ?
B20 O90 Mg1 123.3(7) . . ?
B20 O90 B33 116.6(8) . . ?
B33 O90 Mg1 117.9(6) . . ?
B24 O91 B59 126.4(13) . . ?
O78 B15 O87 114.8(12) 1_545 . ?
O89 B15 O78 115.9(13) . 1_545 ?
O89 B15 O87 124.2(13) . . ?
O9 B16 O10 119.1(17) . . ?
O9 B16 O74 120.6(18) . . ?
O74 B16 O10 102.2(18) . . ?
B23 O93 Mg4 120.5(8) . . ?
B35 O93 Mg4 117.1(9) . . ?
B35 O93 B23 111.5(11) . . ?
B50 O94 B67 135.3(5) . . ?
O3 B17 O54 119.4(10) . . ?
O34 B17 O3 130.8(9) . . ?
O34 B17 O54 109.8(9) . . ?
O5 B18 O32 115.3(15) . . ?
O5 B18 O73 134.3(15) . . ?
O73 B18 O32 110.3(11) . . ?
O28 B19 O16 104.4(10) 1_565 . ?
O59 B19 O16 106.9(10) 1_565 . ?
O59 B19 O28 107.4(10) 1_565 1_565 ?
O106 B19 O16 99.3(9) . . ?
O106 B19 O28 111.9(11) . 1_565 ?
O106 B19 O59 124.7(11) . 1_565 ?
O41 B20 O18 114.3(9) . . ?
O90 B20 O18 118.4(9) . . ?
O90 B20 O41 124.9(10) . . ?
B68 O95 B40 113.1(8) . . ?
O18 B21 Mg1 96.3(8) . . ?
O18 B21 O35 104.6(9) . . ?
O18 B21 O39 125.9(12) . . ?
O18 B21 O54 111.7(10) . . ?
O35 B21 Mg1 153.1(7) . . ?
O39 B21 Mg1 49.6(5) . . ?
O39 B21 O35 103.7(9) . . ?
O39 B21 O54 111.9(9) . . ?
O54 B21 Mg1 95.1(6) . . ?
O54 B21 O35 92.7(8) . . ?
B3 O96 Mg3 123.1(8) . . ?
B3 O96 B30 114.8(10) . . ?
B30 O96 Mg3 117.0(7) . . ?
O23 B22 O104 101.7(16) . . ?
O50 B22 O23 114.7(17) . . ?
O50 B22 O71 121.2(18) . . ?
O50 B22 O104 82.7(14) . . ?
O71 B22 O23 116.4(17) . . ?
O71 B22 O104 112.7(18) . . ?
O53 B23 O69 122.6(15) . . ?
O53 B23 O93 113.7(13) . . ?
O69 B23 O93 120.1(12) . . ?
O40 B24 Mg2 93.7(10) . . ?
O40 B24 O57 100.6(15) . . ?
O40 B24 O74 113.9(14) . . ?
O57 B24 Mg2 156.5(14) . . ?
O74 B24 Mg2 48.4(7) . . ?
O74 B24 O57 108.3(15) . . ?
O91 B24 Mg2 94.3(11) . . ?
O91 B24 O40 113.6(18) . . ?
O91 B24 O57 96.8(12) . . ?
O91 B24 O74 119.9(19) . . ?
O48 B25 O16 117.5(10) . . ?
O48 B25 O98 119.1(12) . . ?
O98 B25 O16 122.7(11) . . ?
O12 B26 O49 119.1(11) . . ?
O12 B26 O70 123.9(12) . . ?
O70 B26 O49 113.6(10) . . ?
B25 O98 B52 126.4(10) . . ?
B53 O100 B30 130.5(13) . . ?
O37 B27 O52 116.3(9) . . ?
O37 B27 O61 117.0(9) . . ?
O37 B27 O84 108.1(8) . . ?
O52 B27 O61 109.1(8) . . ?
O52 B27 O84 101.5(8) . . ?
O61 B27 O84 102.7(7) . . ?
O123 B28 O60 112.4(8) . . ?
O123 B28 O72 109.4(7) . . ?
O11 B28 O123 104.1(8) . . ?
O11 B28 O60 110.2(8) . . ?
O11 B28 O72 112.1(8) . . ?
O72 B28 O60 108.7(8) . . ?
B39 O101 B64 136.6(11) . . ?
B60 O102 B45 116.9(8) . . ?
B38 O103 B37 139.0(7) . . ?
O47 B29 O36 124.1(12) . . ?
O105 B29 O36 115.5(12) . . ?
O105 B29 O47 120.4(11) . . ?
O27 B30 O50 119.2(11) . . ?
O27 B30 O96 115.4(11) . . ?
O27 B30 O100 98.9(9) . . ?
O50 B30 O96 114.5(10) . . ?
O50 B30 O100 101.7(11) . . ?
O96 B30 O100 102.8(10) . . ?
O37 B31 O31 130.6(10) . . ?
O37 B31 O58 123.0(9) . . ?
O58 B31 O31 106.3(9) . . ?
B68 O105 B29 127.5(11) . . ?
B19 O106 B32 128.9(9) . . ?
O58 B32 O61 122.5(8) 1_565 1_565 ?
O58 B32 O106 118.1(9) 1_565 . ?
O61 B32 O106 119.2(8) 1_565 . ?
O55 B33 O56 110.6(11) . . ?
O55 B33 O90 115.5(10) . . ?
O56 B33 O90 116.6(10) . . ?
B41 O108 B40 126.6(9) . . ?
O19 B34 O1 101.9(8) . . ?
O19 B34 O68 109.8(9) . . ?
O29 B34 O1 105.7(8) . . ?
O29 B34 O19 126.3(11) . . ?
O29 B34 O68 109.3(10) . . ?
O68 B34 O1 100.4(9) . . ?
B54 O109 B45 124.0(6) . . ?
O20 B35 O21 114.3(12) . . ?
O20 B35 O75 101.9(12) . . ?
O20 B35 O93 117.6(12) . . ?
O21 B35 O75 102.7(10) . . ?
O93 B35 O21 112.9(13) . . ?
O93 B35 O75 105.1(10) . . ?
O10 B36 O57 114.2(16) . . ?
O86 B36 O10 124.8(18) . . ?
O86 B36 O57 119.7(17) . . ?
B56 O110 B40 131.359(1) . . ?
B37 O111 B51 129.855(2) . . ?
O69 B37 Mg4 91.2(3) . . ?
O80 B37 Mg4 34.3(4) . . ?
O80 B37 O69 96.4(5) . . ?
O103 B37 Mg4 89.5(4) . . ?
O103 B37 O69 132.3(4) . . ?
O103 B37 O80 109.9(6) . . ?
O111 B37 Mg4 149.07(9) . . ?
O111 B37 O69 85.5(3) . . ?
O111 B37 O80 115.5(4) . . ?
O111 B37 O103 115.2(4) . . ?
O103 B38 O114 110.9(5) . . ?
O121 B38 O103 86.8(4) . . ?
O121 B38 O114 153.3(4) . . ?
O45 B39 O32 119.8(13) . . ?
O101 B39 O32 116.2(14) . . ?
O101 B39 O45 122.5(14) . . ?
O95 B40 O62 111.2(3) . . ?
O108 B40 O62 117.803(4) . . ?
O108 B40 O95 101.6(4) . . ?
O110 B40 O62 105.806(3) . . ?
O110 B40 O95 121.4(3) . . ?
O110 B40 O108 99.106(2) . . ?
O79 B41 O4 105.7(11) . . ?
O108 B41 O4 126.8(14) . . ?
O108 B41 O79 124.6(15) . . ?
O47 B42 O64 114.5(12) . . ?
O47 B42 O66 114.2(10) . . ?
O47 B42 O89 108.5(10) . . ?
O64 B42 O66 110.3(9) . . ?
O64 B42 O89 105.9(9) . . ?
O89 B42 O66 102.5(10) . . ?
O2 B43 O34 111.9(11) . . ?
O2 B43 O67 129.9(12) . . ?
O67 B43 O34 117.6(12) . . ?
O17 B44 O48 120.1(10) 1_545 1_545 ?
O17 B44 O60 117.0(10) 1_545 . ?
O48 B44 O60 121.0(9) 1_545 . ?
O102 B45 O109 109.342(4) . . ?
O102 B45 O121 77.922(4) . . ?
O109 B45 O121 107.320(4) . . ?
O117 B45 O102 137.100(3) . . ?
O117 B45 O109 102.119(4) . . ?
O117 B45 O121 119.658(4) . . ?
O26 B46 O38 131.1(10) . . ?
O26 B46 O70 124.6(10) . . ?
O38 B46 O70 103.3(8) . . ?
O29 B47 O8 95.9(8) . . ?
O29 B47 O82 110.1(9) . . ?
O43 B47 O8 114.8(10) . . ?
O43 B47 O29 121.7(10) . . ?
O43 B47 O82 106.2(10) . . ?
O82 B47 O8 107.3(8) . . ?
O21 B48 O53 122.5(14) . . ?
O21 B48 O92 120.5(12) . . ?
O53 B48 O92 116.6(12) . . ?
B49 O112 B53 127.2(12) . . ?
O28 B49 O112 119.6(13) . . ?
O28 B49 O113 121.9(15) . . ?
O112 B49 O113 114.8(12) . . ?
O77 B50 O88 121.712(2) . . ?
O77 B50 O94 113.696(2) . . ?
O77 B50 B62 90.842(1) . . ?
O88 B50 B62 31.535(2) . . ?
O94 B50 O88 124.561(3) . . ?
O94 B50 B62 154.022(2) . . ?
B38 O114 Mg4 126.9(6) . . ?
B38 O114 B56 119.1(6) . . ?
B56 O114 Mg4 113.8(5) . . ?
B57 O115 B62 121.751(1) . . ?
B66 O116 B57 117.0(6) 1_565 . ?
O85 B51 O111 93.2(4) . . ?
O107 B51 O85 135.7(6) . . ?
O107 B51 O111 130.5(4) . . ?
O17 B52 O41 105.6(10) . . ?
O17 B52 O55 129.8(13) . . ?
O17 B52 O98 105.2(10) . . ?
O55 B52 O41 113.1(10) . . ?
O55 B52 O98 100.6(11) . . ?
O98 B52 O41 97.2(10) . . ?
O100 B53 O59 124.6(13) . . ?
O100 B53 O112 125.3(15) . . ?
O112 B53 O59 108.0(12) . . ?
O51 B54 O40 110.9(12) . . ?
O109 B54 O40 115.1(11) . . ?
O109 B54 O51 116.3(9) . . ?
O75 B55 O62 124.907(3) . . ?
O75 B55 O79 119.489(4) . . ?
O79 B55 O62 115.256(4) . . ?
B45 O117 B56 135.384(2) . . ?
O110 B56 O114 129.3(3) . . ?
O110 B56 O117 126.293(1) . . ?
O117 B56 O114 100.3(3) . . ?
O77 B57 O78 138.581(2) . . ?
O77 B57 O115 100.442(3) . . ?
O77 B57 O116 104.980(4) . . ?
O115 B57 O78 78.513(4) . . ?
O115 B57 O116 106.382(2) . . ?
O116 B57 O78 115.112(4) . . ?
O15 B58 O42 115.1(12) . . ?
O81 B58 O15 123.3(13) . . ?
O81 B58 O42 120.2(13) . . ?
B59 O118 B61 103.3(14) . . ?
O44 B59 O91 117.0(16) . . ?
O44 B59 O118 133.6(18) . . ?
O118 B59 O91 106.4(14) . . ?
O65 B60 O51 117.9(13) . . ?
O65 B60 O102 124.0(14) . . ?
O102 B60 O51 117.6(12) . . ?
B61 O119 B64 138.7(10) . . ?
B62 O120 B64 150.651(2) . . ?
O118 B61 O122 94.6(13) . . ?
O119 B61 O118 121.5(15) . . ?
O119 B61 O122 125.9(16) . . ?
O88 B62 B50 41.333(2) . . ?
O88 B62 O115 128.404(3) . . ?
O88 B62 O120 110.585(3) . . ?
O115 B62 B50 89.346(1) . . ?
O120 B62 B50 149.968(1) . . ?
O120 B62 O115 112.096(2) . . ?
O52 B63 O30 117.1(10) . . ?
O52 B63 O72 136.8(11) . . ?
O72 B63 O30 105.8(9) . . ?
O101 B64 O44 98.7(5) . . ?
O101 B64 O120 111.6(4) . . ?
O119 B64 O44 92.7(3) . . ?
O119 B64 O101 125.1(4) . . ?
O119 B64 O120 113.922(4) . . ?
O120 B64 O44 110.5(4) . . ?
B38 O121 B45 87.331(3) . . ?
O64 B65 O80 111.0(15) . . ?
O85 B65 O64 124.4(16) . . ?
O85 B65 O80 113.9(11) . . ?
O20 B66 O87 122.4(12) . . ?
O20 B66 O116 116.7(12) . 1_545 ?
O87 B66 O116 120.5(12) . 1_545 ?
O9 B67 O46 109.7(11) . . ?
O9 B67 O94 95.3(10) . . ?
O46 B67 O94 120.5(9) . . ?
O81 B67 O9 114.5(10) . . ?
O81 B67 O46 111.8(12) . . ?
O81 B67 O94 104.2(10) . . ?
O95 B68 O66 124.3(9) . . ?
O105 B68 O66 120.1(11) . . ?
O105 B68 O95 115.6(11) . . ?
loop_
_geom_bond_atom_site_label_1
_geom_bond_atom_site_label_2
_geom_bond_distance
_geom_bond_site_symmetry_2
_geom_bond_publ_flag
Mg1 O3 2.133(8) . ?
Mg1 O25 2.162(8) . ?
Mg1 O26 2.071(8) . ?
Mg1 O29 1.966(9) . ?
Mg1 O39 2.245(9) . ?
Mg1 O90 2.183(7) . ?
Mg1 B21 2.885(14) . ?
O1 B7 1.020(15) . ?
O1 B34 1.745(14) . ?
Mg2 O44 2.321(12) . ?
Mg2 O45 2.143(10) . ?
Mg2 O51 2.146(8) . ?
Mg2 O74 2.220(11) . ?
Mg2 O81 2.190(9) . ?
Mg2 O88 2.163(4) . ?
Mg2 B24 2.90(2) . ?
O2 B43 1.296(16) . ?
O3 B9 1.471(15) . ?
O3 B17 1.365(13) . ?
Mg3 O23 2.123(8) . ?
Mg3 O48 2.157(8) 1_545 ?
Mg3 O59 2.173(9) . ?
Mg3 O61 2.098(7) . ?
Mg3 O72 2.080(8) . ?
Mg3 O96 2.124(8) . ?
O6 B4 1.549(15) . ?
O6 B12 1.296(14) . ?
O5 B18 1.215(17) . ?
O123 B13 1.416(14) . ?
O123 B28 1.496(13) . ?
O7 B5 1.407(12) . ?
O7 B9 1.408(14) . ?
O8 B8 1.227(14) . ?
O8 B47 1.699(15) . ?
O9 B16 1.10(2) . ?
O9 B67 1.484(17) . ?
O10 B16 1.51(2) . ?
O10 B36 1.44(2) . ?
O11 B3 1.334(16) . ?
O11 B28 1.421(13) . ?
O12 B26 1.281(15) . ?
O4 B41 1.41(2) . ?
Mg4 O62 1.898(6) . ?
Mg4 O66 2.000(8) . ?
Mg4 O80 1.844(11) . ?
Mg4 O87 2.064(9) . ?
Mg4 O93 2.116(10) . ?
Mg4 B37 2.875(5) . ?
Mg4 O114 2.168(9) . ?
O14 B3 1.396(15) . ?
O14 B10 1.326(16) . ?
O15 B14 1.189(19) . ?
O15 B58 1.374(17) . ?
O16 B19 1.512(15) . ?
O16 B25 1.386(17) . ?
O17 B44 1.354(13) 1_565 ?
O17 B52 1.264(16) . ?
O18 B20 1.555(14) . ?
O18 B21 1.309(15) . ?
O19 B1 1.366(15) . ?
O19 B34 1.465(16) . ?
O20 B35 1.316(17) . ?
O20 B66 1.373(18) . ?
O21 B35 1.467(18) . ?
O21 B48 1.207(17) . ?
O22 B7 1.409(16) . ?
O22 B11 1.355(16) . ?
O23 B6 1.530(15) . ?
O23 B22 1.47(2) . ?
O24 B4 1.366(15) . ?
O24 B6 1.282(15) . ?
O25 B5 1.442(13) . ?
O25 B12 1.584(15) . ?
O26 B8 1.573(13) . ?
O26 B46 1.232(14) . ?
O27 B10 1.373(17) . ?
O27 B30 1.370(15) . ?
O28 B19 1.465(16) 1_545 ?
O28 B49 1.282(19) . ?
O29 B34 1.395(15) . ?
O29 B47 1.526(16) . ?
O30 B13 1.268(14) . ?
O30 B63 1.552(14) . ?
O31 B31 1.425(12) . ?
O32 B18 1.511(19) . ?
O32 B39 1.546(17) . ?
O33 B4 1.559(15) . ?
O33 B5 1.235(12) . ?
O34 B17 1.317(14) . ?
O34 B43 1.477(16) . ?
O35 B11 1.305(16) . ?
O35 B21 1.727(15) . ?
O36 B29 1.356(14) . ?
O37 B27 1.325(12) . ?
O37 B31 1.282(14) . ?
O38 B9 1.547(14) . ?
O38 B46 1.421(14) . ?
O39 B7 1.518(16) . ?
O39 B21 1.409(15) . ?
O40 B24 1.43(3) . ?
O40 B54 1.502(16) . ?
O41 B20 1.371(13) . ?
O41 B52 1.541(15) . ?
O42 B2 1.174(16) . ?
O42 B58 1.441(15) . ?
O43 B1 1.290(15) . ?
O43 B47 1.288(15) . ?
O44 B59 1.23(2) . ?
O44 B64 1.798(11) . ?
O45 B14 1.493(19) . ?
O45 B39 1.32(2) . ?
O46 B2 1.480(18) . ?
O46 B67 1.517(17) . ?
O47 B29 1.348(17) . ?
O47 B42 1.373(15) . ?
O48 B25 1.345(16) . ?
O48 B44 1.393(15) 1_565 ?
O49 B8 1.514(13) . ?
O49 B26 1.422(16) . ?
O50 B22 1.34(2) . ?
O50 B30 1.374(16) . ?
O51 B54 1.431(18) . ?
O51 B60 1.605(18) . ?
O52 B27 1.425(13) . ?
O52 B63 1.116(13) . ?
B1 O63 1.433(16) . ?
O53 B23 1.303(17) . ?
O53 B48 1.300(17) . ?
O54 B17 1.446(13) . ?
O54 B21 1.593(16) . ?
O55 B33 1.277(15) . ?
O55 B52 1.356(15) . ?
O56 B8 1.667(13) . ?
O56 B33 1.317(15) . ?
O57 B24 1.60(2) . ?
O57 B36 1.45(2) . ?
B2 O97 1.379(15) . ?
O58 B31 1.348(13) . ?
O58 B32 1.368(12) 1_545 ?
O59 B19 1.457(16) 1_545 ?
O59 B53 1.468(18) . ?
O60 B28 1.515(11) . ?
O60 B44 1.421(14) . ?
O61 B27 1.511(13) . ?
O61 B32 1.409(13) 1_545 ?
O62 B40 1.65162(10) . ?
O62 B55 1.60313(9) . ?
O64 B42 1.524(18) . ?
O64 B65 1.301(18) . ?
O65 B14 1.670(17) . ?
O65 B60 1.134(17) . ?
O66 B42 1.623(15) . ?
O66 B68 1.517(16) . ?
O67 B9 1.457(15) . ?
O67 B43 1.309(16) . ?
O68 B12 1.229(15) . ?
O68 B34 1.497(16) . ?
O69 B23 1.387(19) . ?
O69 B37 1.842(9) . ?
O70 B26 1.400(16) . ?
O70 B46 1.467(13) . ?
O71 B4 1.581(14) . ?
O71 B22 1.41(2) . ?
O72 B28 1.513(13) . ?
O72 B63 1.369(14) . ?
O73 B14 1.469(18) . ?
O73 B18 1.46(2) . ?
O74 B16 1.36(3) . ?
O74 B24 1.47(3) . ?
B3 O96 1.364(17) . ?
O75 B35 1.735(18) . ?
O75 B55 1.17238(4) . ?
O76 B11 1.426(15) . ?
O77 B50 1.34529(6) . ?
O77 B57 1.24257(2) . ?
O78 B15 1.306(15) 1_565 ?
O78 B57 1.48601(5) . ?
O79 B41 1.395(17) . ?
O79 B55 1.51667(8) . ?
O80 B37 1.495(8) . ?
O80 B65 1.69(2) . ?
O81 B58 1.170(18) . ?
O81 B67 1.478(17) . ?
O82 B47 1.536(13) . ?
O83 B13 1.451(14) . ?
O84 B6 1.226(15) . ?
O84 B27 1.602(13) . ?
O85 B51 1.399(9) . ?
O85 B65 1.23(2) . ?
O86 B36 1.24(2) . ?
B10 O99 1.383(15) . ?
O87 B15 1.509(18) . ?
O87 B66 1.402(18) . ?
O88 B50 1.40837(7) . ?
O88 B62 1.11535(4) . ?
O89 B15 1.164(17) . ?
O89 B42 1.539(16) . ?
O90 B20 1.295(13) . ?
O90 B33 1.537(15) . ?
O91 B24 1.43(2) . ?
O91 B59 1.48(2) . ?
O92 B48 1.425(17) . ?
O93 B23 1.56(2) . ?
O93 B35 1.417(19) . ?
O94 B50 1.37325(7) . ?
O94 B67 1.690(16) . ?
B19 O106 1.297(15) . ?
O95 B40 1.483(10) . ?
O95 B68 1.460(17) . ?
O96 B30 1.453(17) . ?
B22 O104 1.48(3) . ?
B25 O98 1.385(15) . ?
O98 B52 1.472(16) . ?
O100 B30 1.638(17) . ?
O100 B53 1.207(19) . ?
O101 B39 1.259(19) . ?
O101 B64 1.450(8) . ?
O102 B45 1.68493(6) . ?
O102 B60 1.304(15) . ?
O103 B37 1.475(9) . ?
O103 B38 1.356(10) . ?
B29 O105 1.299(16) . ?
O105 B68 1.281(14) . ?
O106 B32 1.434(12) . ?
O107 B51 1.341(10) . ?
O108 B40 1.44967(7) . ?
O108 B41 1.206(16) . ?
O109 B45 1.74437(8) . ?
O109 B54 1.374(15) . ?
O110 B40 1.26493(5) . ?
O110 B56 1.13406(4) . ?
O111 B37 1.45203(5) . ?
O111 B51 1.82899(8) . ?
B38 O114 1.373(9) . ?
B38 O121 1.31684(2) . ?
B45 O117 1.31197(5) . ?
B45 O121 1.95187(10) . ?
O112 B49 1.315(19) . ?
O112 B53 1.425(18) . ?
O113 B49 1.422(16) . ?
B50 B62 2.03789(12) . ?
O114 B56 1.583(10) . ?
O115 B57 1.42426(6) . ?
O115 B62 1.50461(3) . ?
O116 B57 1.47714(8) . ?
O116 B66 1.423(15) 1_565 ?
O117 B56 1.53917(5) . ?
O118 B59 1.27(2) . ?
O118 B61 1.51(2) . ?
O119 B61 1.161(19) . ?
O119 B64 1.33487(7) . ?
O120 B62 1.16776(5) . ?
O120 B64 1.44971(6) . ?
B61 O122 1.72(2) . ?
loop_
_smtbx_masks_void_nr
_smtbx_masks_void_average_x
_smtbx_masks_void_average_y
_smtbx_masks_void_average_z
_smtbx_masks_void_volume
_smtbx_masks_void_count_electrons
_smtbx_masks_void_content
1 -0.001 -0.988 -0.353 4446.5 1404.7 ?
2 0.229 0.490 0.917 0.0 0.0 ?
3 0.229 0.510 0.417 0.0 0.0 ?
