
#======================================================================
# CRYSTAL DATA
#----------------------------------------------------------------------
data_VESTA_phase_1

_chemical_name_common                  'New structure'
_cell_length_a                         4.234000
_cell_length_b                         3.178000
_cell_length_c                         5.984000
_cell_angle_alpha                      90.000000
_cell_angle_beta                       90.000000
_cell_angle_gamma                      90.000000
_cell_volume                           80.518628
_space_group_name_H-M_alt              'P n m a'
_space_group_IT_number                 62

loop_
_space_group_symop_operation_xyz
   'x, y, z'
   '-x, -y, -z'
   '-x+1/2, -y, z+1/2'
   'x+1/2, y, -z+1/2'
   '-x, y+1/2, -z'
   'x, -y+1/2, z'
   'x+1/2, -y+1/2, -z+1/2'
   '-x+1/2, y+1/2, z+1/2'

loop_
   _atom_site_label
   _atom_site_occupancy
   _atom_site_fract_x
   _atom_site_fract_y
   _atom_site_fract_z
   _atom_site_adp_type
   _atom_site_U_iso_or_equiv
   _atom_site_type_symbol
   Fe1        1.0     0.666500     0.250000     0.430400    Uiso  0.050000 Fe
   Fe2        1.0     0.468700     0.750000     0.205300    Uiso  0.050000 Fe
   S1         1.0     0.788500     0.750000     0.605200    Uiso  0.050000 S
